# CIF file generated by openbabel 2.4.90, see http://openbabel.sf.net
data_I
_chemical_name_common ''
_cell_length_a 18.665
_cell_length_b 19.524
_cell_length_c 19.476
_cell_angle_alpha 122.217
_cell_angle_beta 89.958
_cell_angle_gamma 90.118
_space_group_name_H-M_alt 'P 1'
_space_group_name_Hall 'P 1'
loop_
    _symmetry_equiv_pos_as_xyz
    x,y,z
loop_
    _atom_site_label
    _atom_site_type_symbol
    _atom_site_fract_x
    _atom_site_fract_y
    _atom_site_fract_z
    _atom_site_occupancy
    C0      C    0.28435   0.20386   0.13740   1.000
    C1      C    0.28434   0.20386   0.63740   1.000
    C2      C    0.28434   0.70385   0.13739   1.000
    C3      C    0.28434   0.70385   0.63739   1.000
    C4      C    0.78434   0.20386   0.13740   1.000
    C5      C    0.78433   0.20386   0.63740   1.000
    C6      C    0.78433   0.70385   0.13739   1.000
    C7      C    0.78433   0.70385   0.63739   1.000
    C8      C    0.03440   0.29609   0.36253   1.000
    C9      C    0.03440   0.29609   0.86253   1.000
    C10     C    0.03440   0.79608   0.36253   1.000
    C11     C    0.03440   0.79608   0.86253   1.000
    C12     C    0.53439   0.29609   0.36253   1.000
    C13     C    0.53439   0.29609   0.86253   1.000
    C14     C    0.53439   0.79608   0.36253   1.000
    C15     C    0.53439   0.79608   0.86253   1.000
    C16     C    0.12617   0.26429   0.20979   1.000
    C17     C    0.12616   0.26429   0.70970   1.000
    C18     C    0.12616   0.76428   0.20978   1.000
    C19     C    0.12616   0.76428   0.70978   1.000
    C20     C    0.62616   0.26429   0.20979   1.000
    C21     C    0.62615   0.26429   0.70970   1.000
    C22     C    0.62615   0.76428   0.20978   1.000
    C23     C    0.62615   0.76428   0.70978   1.000
    C24     C    0.21954   0.15891   0.39577   1.000
    C25     C    0.21954   0.15891   0.89577   1.000
    C26     C    0.21954   0.65890   0.39577   1.000
    C27     C    0.21953   0.65890   0.89570   1.000
    C28     C    0.71953   0.15891   0.39577   1.000
    C29     C    0.71953   0.15891   0.89577   1.000
    C30     C    0.71952   0.65890   0.39577   1.000
    C31     C    0.71952   0.65890   0.89570   1.000
    C32     C    0.12576   0.17850   0.40630   1.000
    C33     C    0.12576   0.17850   0.90631   1.000
    C34     C    0.12576   0.67849   0.40631   1.000
    C35     C    0.12576   0.67849   0.90631   1.000
    C36     C    0.62575   0.17850   0.40630   1.000
    C37     C    0.62575   0.17850   0.90631   1.000
    C38     C    0.62575   0.67849   0.40631   1.000
    C39     C    0.62574   0.67849   0.90631   1.000
    C40     C    0.30204   0.29622   0.47342   1.000
    C41     C    0.30203   0.29622   0.97342   1.000
    C42     C    0.30203   0.79621   0.47342   1.000
    C43     C    0.30203   0.79621   0.97342   1.000
    C44     C    0.80203   0.29622   0.47342   1.000
    C45     C    0.80202   0.29622   0.97342   1.000
    C46     C    0.80202   0.79621   0.47342   1.000
    C47     C    0.80202   0.79621   0.97342   1.000
    C48     C    0.28751   0.16053   0.27642   1.000
    C49     C    0.28751   0.16052   0.77640   1.000
    C50     C    0.28751   0.66052   0.27641   1.000
    C51     C    0.28750   0.66052   0.77641   1.000
    C52     C    0.78750   0.16052   0.27642   1.000
    C53     C    0.78750   0.16052   0.77640   1.000
    C54     C    0.78750   0.66052   0.27641   1.000
    C55     C    0.78749   0.66052   0.77641   1.000
    C56     C    0.29741   0.04459   0.13355   1.000
    C57     C    0.29741   0.04458   0.63354   1.000
    C58     C    0.29740   0.54458   0.13354   1.000
    C59     C    0.29740   0.54458   0.63355   1.000
    C60     C    0.79740   0.04459   0.13350   1.000
    C61     C    0.79739   0.04459   0.63354   1.000
    C62     C    0.79739   0.54458   0.13354   1.000
    C63     C    0.79739   0.54458   0.63350   1.000
    C64     C    0.38340   0.05203   0.09831   1.000
    C65     C    0.38340   0.05203   0.59830   1.000
    C66     C    0.38339   0.55202   0.09830   1.000
    C67     C    0.38339   0.55202   0.59831   1.000
    C68     C    0.88339   0.05203   0.09831   1.000
    C69     C    0.88338   0.05203   0.59831   1.000
    C70     C    0.88338   0.55202   0.09830   1.000
    C71     C    0.88338   0.55202   0.59831   1.000
    C72     C    0.14401   0.32184   0.00317   1.000
    C73     C    0.14401   0.32184   0.50317   1.000
    C74     C    0.14400   0.82183   0.50316   1.000
    C75     C    0.14400   0.82183   0.00000   1.000
    C76     C    0.64400   0.32184   0.00317   1.000
    C77     C    0.64400   0.32184   0.50317   1.000
    C78     C    0.64399   0.82183   0.50316   1.000
    C79     C    0.64399   0.82183   0.00000   1.000
    C80     C    0.34288   0.42944   0.45661   1.000
    C81     C    0.34287   0.42944   0.95660   1.000
    C82     C    0.34287   0.92943   0.45661   1.000
    C83     C    0.34287   0.92943   0.95661   1.000
    C84     C    0.84286   0.42944   0.45661   1.000
    C85     C    0.84286   0.42944   0.95660   1.000
    C86     C    0.84286   0.92943   0.45661   1.000
    C87     C    0.84286   0.92943   0.95660   1.000
    C88     C    0.36620   0.40921   0.03132   1.000
    C89     C    0.36619   0.40921   0.53132   1.000
    C90     C    0.36619   0.90921   0.03132   1.000
    C91     C    0.36619   0.90920   0.53132   1.000
    C92     C    0.86619   0.40921   0.03132   1.000
    C93     C    0.86618   0.40921   0.53132   1.000
    C94     C    0.86618   0.90921   0.03132   1.000
    C95     C    0.86618   0.90920   0.53132   1.000
    C96     C    0.33204   0.07477   0.00498   1.000
    C97     C    0.33203   0.07476   0.50498   1.000
    C98     C    0.33203   0.57476   0.00498   1.000
    C99     C    0.33203   0.57476   0.50498   1.000
    C100    C    0.83202   0.07477   0.00498   1.000
    C101    C    0.83202   0.07476   0.50498   1.000
    C102    C    0.83202   0.57476   0.00498   1.000
    C103    C    0.83202   0.57476   0.50498   1.000
    C104    C    0.24897   0.05605   0.02375   1.000
    C105    C    0.24896   0.05605   0.52375   1.000
    C106    C    0.24896   0.55604   0.02375   1.000
    C107    C    0.24896   0.55604   0.52375   1.000
    C108    C    0.74895   0.05605   0.02375   1.000
    C109    C    0.74895   0.05605   0.52375   1.000
    C110    C    0.74895   0.55604   0.02375   1.000
    C111    C    0.74895   0.55604   0.52375   1.000
    C112    C    0.37590   0.23589   0.29030   1.000
    C113    C    0.37589   0.23589   0.79036   1.000
    C114    C    0.37589   0.73588   0.29036   1.000
    C115    C    0.37589   0.73588   0.79036   1.000
    C116    C    0.87589   0.23589   0.29030   1.000
    C117    C    0.87588   0.23589   0.79036   1.000
    C118    C    0.87588   0.73588   0.29036   1.000
    C119    C    0.87588   0.73588   0.79036   1.000
    C120    C    0.47003   0.34092   0.10411   1.000
    C121    C    0.47003   0.34092   0.60410   1.000
    C122    C    0.47003   0.84091   0.10410   1.000
    C123    C    0.47003   0.84091   0.60410   1.000
    C124    C    0.97002   0.34092   0.10411   1.000
    C125    C    0.97002   0.34092   0.60410   1.000
    C126    C    0.97002   0.84091   0.10410   1.000
    C127    C    0.97001   0.84091   0.60410   1.000
    C128    C    0.37619   0.32139   0.09368   1.000
    C129    C    0.37618   0.32139   0.59360   1.000
    C130    C    0.37618   0.82138   0.09367   1.000
    C131    C    0.37618   0.82138   0.59367   1.000
    C132    C    0.87618   0.32139   0.09368   1.000
    C133    C    0.87617   0.32139   0.59367   1.000
    C134    C    0.87617   0.82138   0.09367   1.000
    C135    C    0.87617   0.82138   0.59367   1.000
    C136    C    0.05201   0.20394   0.02682   1.000
    C137    C    0.05200   0.20393   0.52682   1.000
    C138    C    0.05200   0.70393   0.02682   1.000
    C139    C    0.05200   0.70393   0.52680   1.000
    C140    C    0.55200   0.20394   0.02682   1.000
    C141    C    0.55199   0.20393   0.52682   1.000
    C142    C    0.55199   0.70393   0.02682   1.000
    C143    C    0.55199   0.70393   0.52680   1.000
    C144    C    0.03801   0.33909   0.22333   1.000
    C145    C    0.03801   0.33909   0.72333   1.000
    C146    C    0.03801   0.83908   0.22332   1.000
    C147    C    0.03801   0.83908   0.72330   1.000
    C148    C    0.53800   0.33909   0.22333   1.000
    C149    C    0.53800   0.33909   0.72333   1.000
    C150    C    0.53800   0.83908   0.22332   1.000
    C151    C    0.53800   0.83908   0.72332   1.000
    C152    C    0.04721   0.45548   0.36653   1.000
    C153    C    0.04721   0.45548   0.86653   1.000
    C154    C    0.04720   0.95547   0.36653   1.000
    C155    C    0.04720   0.95547   0.86653   1.000
    C156    C    0.54720   0.45548   0.36653   1.000
    C157    C    0.54720   0.45548   0.86653   1.000
    C158    C    0.54720   0.95547   0.36653   1.000
    C159    C    0.54719   0.95547   0.86653   1.000
    C160    C    0.13330   0.44853   0.40172   1.000
    C161    C    0.13330   0.44853   0.90172   1.000
    C162    C    0.13330   0.94852   0.40172   1.000
    C163    C    0.13330   0.94853   0.90172   1.000
    C164    C    0.63329   0.44853   0.40172   1.000
    C165    C    0.63329   0.44853   0.90172   1.000
    C166    C    0.63329   0.94852   0.40172   1.000
    C167    C    0.63329   0.94852   0.90172   1.000
    C168    C    0.39394   0.17796   0.49688   1.000
    C169    C    0.39394   0.17796   0.99688   1.000
    C170    C    0.39393   0.67795   0.99688   1.000
    C171    C    0.39393   0.67795   0.49688   1.000
    C172    C    0.89393   0.17796   0.99688   1.000
    C173    C    0.89393   0.17796   0.49688   1.000
    C174    C    0.89392   0.67795   0.99688   1.000
    C175    C    0.89392   0.67795   0.49688   1.000
    C176    C    0.09257   0.07090   0.04353   1.000
    C177    C    0.09257   0.07090   0.54352   1.000
    C178    C    0.09257   0.57090   0.04352   1.000
    C179    C    0.09256   0.57089   0.54352   1.000
    C180    C    0.59256   0.07090   0.04353   1.000
    C181    C    0.59256   0.07090   0.54352   1.000
    C182    C    0.59256   0.57090   0.04350   1.000
    C183    C    0.59255   0.57089   0.54352   1.000
    C184    C    0.11613   0.09119   0.46887   1.000
    C185    C    0.11613   0.09119   0.96888   1.000
    C186    C    0.11613   0.59118   0.46887   1.000
    C187    C    0.11612   0.59118   0.96887   1.000
    C188    C    0.61612   0.09119   0.46887   1.000
    C189    C    0.61612   0.09119   0.96888   1.000
    C190    C    0.61611   0.59118   0.46880   1.000
    C191    C    0.61611   0.59118   0.96887   1.000
    C192    C    0.08232   0.42524   0.49489   1.000
    C193    C    0.08232   0.42524   0.99480   1.000
    C194    C    0.08232   0.92523   0.49488   1.000
    C195    C    0.08231   0.92523   0.99489   1.000
    C196    C    0.58231   0.42524   0.49489   1.000
    C197    C    0.58231   0.42524   0.99480   1.000
    C198    C    0.58231   0.92523   0.49480   1.000
    C199    C    0.58230   0.92523   0.99480   1.000
    C200    C    0.49911   0.44362   0.47639   1.000
    C201    C    0.49910   0.44362   0.97630   1.000
    C202    C    0.49910   0.94361   0.47638   1.000
    C203    C    0.49910   0.94361   0.97638   1.000
    C204    C    0.99910   0.44362   0.47639   1.000
    C205    C    0.99909   0.44362   0.97630   1.000
    C206    C    0.99909   0.94361   0.47638   1.000
    C207    C    0.99909   0.94361   0.97638   1.000
    C208    C    0.15490   0.24458   0.24454   1.000
    C209    C    0.15490   0.24457   0.74454   1.000
    C210    C    0.15490   0.74457   0.24454   1.000
    C211    C    0.15489   0.74457   0.74454   1.000
    C212    C    0.65489   0.24457   0.24454   1.000
    C213    C    0.65489   0.24457   0.74454   1.000
    C214    C    0.65489   0.74457   0.24454   1.000
    C215    C    0.65488   0.74457   0.74454   1.000
    C216    C    0.17823   0.20291   0.40410   1.000
    C217    C    0.17822   0.20291   0.90410   1.000
    C218    C    0.17822   0.70290   0.40410   1.000
    C219    C    0.17822   0.70290   0.90400   1.000
    C220    C    0.67822   0.20291   0.40410   1.000
    C221    C    0.67821   0.20291   0.90410   1.000
    C222    C    0.67821   0.70290   0.40410   1.000
    C223    C    0.67821   0.70290   0.90400   1.000
    C224    C    0.23763   0.18991   0.27854   1.000
    C225    C    0.23762   0.18991   0.77854   1.000
    C226    C    0.23762   0.68990   0.27854   1.000
    C227    C    0.23762   0.68990   0.77854   1.000
    C228    C    0.73762   0.18991   0.27854   1.000
    C229    C    0.73761   0.18991   0.77854   1.000
    C230    C    0.73761   0.68990   0.27854   1.000
    C231    C    0.73761   0.68990   0.77854   1.000
    C232    C    0.18241   0.21270   0.33336   1.000
    C233    C    0.18241   0.21269   0.83336   1.000
    C234    C    0.18240   0.71269   0.33336   1.000
    C235    C    0.18240   0.71269   0.83336   1.000
    C236    C    0.68240   0.21270   0.33336   1.000
    C237    C    0.68240   0.21269   0.83336   1.000
    C238    C    0.68239   0.71269   0.33336   1.000
    C239    C    0.68239   0.71269   0.83336   1.000
    C240    C    0.32805   0.03152   0.07971   1.000
    C241    C    0.32805   0.03151   0.57970   1.000
    C242    C    0.32805   0.53151   0.07970   1.000
    C243    C    0.32804   0.53151   0.57971   1.000
    C244    C    0.82804   0.03152   0.07971   1.000
    C245    C    0.82804   0.03152   0.57971   1.000
    C246    C    0.82804   0.53151   0.07970   1.000
    C247    C    0.82803   0.53151   0.57971   1.000
    C248    C    0.19594   0.25803   0.05160   1.000
    C249    C    0.19594   0.25802   0.55160   1.000
    C250    C    0.19594   0.75802   0.05160   1.000
    C251    C    0.19593   0.75802   0.55100   1.000
    C252    C    0.69593   0.25803   0.05160   1.000
    C253    C    0.69593   0.25802   0.55160   1.000
    C254    C    0.69593   0.75802   0.05160   1.000
    C255    C    0.69592   0.75802   0.55100   1.000
    C256    C    0.19048   0.28207   0.48808   1.000
    C257    C    0.19048   0.28207   0.98808   1.000
    C258    C    0.19048   0.78206   0.48808   1.000
    C259    C    0.19048   0.78206   0.98808   1.000
    C260    C    0.69047   0.28207   0.48808   1.000
    C261    C    0.69047   0.28207   0.98808   1.000
    C262    C    0.69047   0.78206   0.48808   1.000
    C263    C    0.69046   0.78206   0.98808   1.000
    C264    C    0.32654   0.44062   0.01615   1.000
    C265    C    0.32654   0.44062   0.51615   1.000
    C266    C    0.32654   0.94062   0.01615   1.000
    C267    C    0.32653   0.94061   0.51615   1.000
    C268    C    0.82653   0.44062   0.01615   1.000
    C269    C    0.82653   0.44062   0.51615   1.000
    C270    C    0.82652   0.94062   0.01615   1.000
    C271    C    0.82652   0.94061   0.51615   1.000
    C272    C    0.25255   0.40376   0.00880   1.000
    C273    C    0.25255   0.40377   0.50881   1.000
    C274    C    0.25254   0.90376   0.00881   1.000
    C275    C    0.25254   0.90375   0.50880   1.000
    C276    C    0.75254   0.40377   0.00881   1.000
    C277    C    0.75253   0.40376   0.50881   1.000
    C278    C    0.75253   0.90376   0.00881   1.000
    C279    C    0.75253   0.90375   0.50880   1.000
    C280    C    0.40482   0.25549   0.25550   1.000
    C281    C    0.40481   0.25549   0.75553   1.000
    C282    C    0.40481   0.75548   0.25553   1.000
    C283    C    0.40481   0.75548   0.75553   1.000
    C284    C    0.90481   0.25549   0.25553   1.000
    C285    C    0.90480   0.25549   0.75553   1.000
    C286    C    0.90480   0.75548   0.25553   1.000
    C287    C    0.90480   0.75548   0.75553   1.000
    C288    C    0.42854   0.29696   0.09580   1.000
    C289    C    0.42853   0.29696   0.59586   1.000
    C290    C    0.42853   0.79695   0.09586   1.000
    C291    C    0.42853   0.79695   0.59586   1.000
    C292    C    0.92853   0.29696   0.09580   1.000
    C293    C    0.92852   0.29696   0.59586   1.000
    C294    C    0.92852   0.79695   0.09586   1.000
    C295    C    0.92852   0.79695   0.59586   1.000
    C296    C    0.48793   0.30988   0.22133   1.000
    C297    C    0.48793   0.30988   0.72133   1.000
    C298    C    0.48792   0.80987   0.22133   1.000
    C299    C    0.48792   0.80987   0.72133   1.000
    C300    C    0.98792   0.30988   0.22133   1.000
    C301    C    0.98791   0.30988   0.72133   1.000
    C302    C    0.98791   0.80987   0.22133   1.000
    C303    C    0.98791   0.80987   0.72133   1.000
    C304    C    0.43263   0.28722   0.16662   1.000
    C305    C    0.43263   0.28722   0.66662   1.000
    C306    C    0.43262   0.78721   0.16662   1.000
    C307    C    0.43262   0.78721   0.66662   1.000
    C308    C    0.93262   0.28722   0.16662   1.000
    C309    C    0.93261   0.28722   0.66662   1.000
    C310    C    0.93261   0.78721   0.16662   1.000
    C311    C    0.93261   0.78721   0.66662   1.000
    C312    C    0.07795   0.46871   0.42035   1.000
    C313    C    0.07795   0.46871   0.92035   1.000
    C314    C    0.07795   0.96870   0.42035   1.000
    C315    C    0.07794   0.96871   0.92035   1.000
    C316    C    0.57794   0.46871   0.42035   1.000
    C317    C    0.57794   0.46871   0.92035   1.000
    C318    C    0.57793   0.96870   0.42035   1.000
    C319    C    0.57793   0.96870   0.92035   1.000
    C320    C    0.44598   0.24189   0.44842   1.000
    C321    C    0.44598   0.24189   0.94842   1.000
    C322    C    0.44598   0.74188   0.44842   1.000
    C323    C    0.44597   0.74188   0.94842   1.000
    C324    C    0.94597   0.24189   0.44842   1.000
    C325    C    0.94597   0.24189   0.94842   1.000
    C326    C    0.94597   0.74188   0.44842   1.000
    C327    C    0.94596   0.74188   0.94842   1.000
    C328    C    0.44052   0.21777   0.01190   1.000
    C329    C    0.44052   0.21777   0.51100   1.000
    C330    C    0.44052   0.71776   0.01189   1.000
    C331    C    0.44052   0.71776   0.51189   1.000
    C332    C    0.94051   0.21777   0.01190   1.000
    C333    C    0.94051   0.21777   0.51100   1.000
    C334    C    0.94051   0.71776   0.01189   1.000
    C335    C    0.94051   0.71776   0.51189   1.000
    C336    C    0.07639   0.05960   0.48390   1.000
    C337    C    0.07638   0.05960   0.98390   1.000
    C338    C    0.07638   0.55959   0.48390   1.000
    C339    C    0.07638   0.55959   0.98390   1.000
    C340    C    0.57637   0.05960   0.48390   1.000
    C341    C    0.57637   0.05960   0.98390   1.000
    C342    C    0.57637   0.55959   0.48390   1.000
    C343    C    0.57637   0.55959   0.98390   1.000
    C344    C    0.00243   0.09613   0.49099   1.000
    C345    C    0.00243   0.09614   0.99099   1.000
    C346    C    0.00242   0.59613   0.49099   1.000
    C347    C    0.00242   0.59613   0.99099   1.000
    C348    C    0.50242   0.09614   0.49099   1.000
    C349    C    0.50241   0.09613   0.99099   1.000
    C350    C    0.50241   0.59613   0.49099   1.000
    C351    C    0.50241   0.59613   0.99099   1.000
    C352    C    0.29775   0.08113   0.04960   1.000
    C353    C    0.29774   0.08113   0.54962   1.000
    C354    C    0.29774   0.58112   0.04962   1.000
    C355    C    0.29774   0.58112   0.54962   1.000
    C356    C    0.79773   0.08113   0.04960   1.000
    C357    C    0.79773   0.08113   0.54962   1.000
    C358    C    0.79773   0.58112   0.04962   1.000
    C359    C    0.79773   0.58112   0.54962   1.000
    C360    C    0.25340   0.32615   0.48897   1.000
    C361    C    0.25339   0.32615   0.98897   1.000
    C362    C    0.25339   0.82614   0.48897   1.000
    C363    C    0.25339   0.82614   0.98897   1.000
    C364    C    0.75338   0.32615   0.48897   1.000
    C365    C    0.75338   0.32615   0.98897   1.000
    C366    C    0.75338   0.82614   0.48897   1.000
    C367    C    0.75338   0.82614   0.98897   1.000
    C368    C    0.22023   0.21019   0.22244   1.000
    C369    C    0.22023   0.21019   0.72244   1.000
    C370    C    0.22023   0.71018   0.22244   1.000
    C371    C    0.22023   0.71018   0.72244   1.000
    C372    C    0.72022   0.21019   0.22244   1.000
    C373    C    0.72022   0.21019   0.72244   1.000
    C374    C    0.72022   0.71018   0.22244   1.000
    C375    C    0.72022   0.71018   0.72244   1.000
    C376    C    0.12972   0.24778   0.31133   1.000
    C377    C    0.12971   0.24778   0.81133   1.000
    C378    C    0.12971   0.74777   0.31133   1.000
    C379    C    0.12971   0.74777   0.81133   1.000
    C380    C    0.62970   0.24778   0.31133   1.000
    C381    C    0.62970   0.24778   0.81133   1.000
    C382    C    0.62970   0.74777   0.31133   1.000
    C383    C    0.62970   0.74777   0.81133   1.000
    C384    C    0.04787   0.41886   0.45039   1.000
    C385    C    0.04786   0.41886   0.95039   1.000
    C386    C    0.04786   0.91885   0.45039   1.000
    C387    C    0.04786   0.91885   0.95039   1.000
    C388    C    0.54786   0.41886   0.45039   1.000
    C389    C    0.54785   0.41886   0.95039   1.000
    C390    C    0.54785   0.91885   0.45039   1.000
    C391    C    0.54785   0.91885   0.95039   1.000
    C392    C    0.00335   0.17381   0.01100   1.000
    C393    C    0.00335   0.17381   0.51100   1.000
    C394    C    0.00335   0.67380   0.01100   1.000
    C395    C    0.00334   0.67380   0.51100   1.000
    C396    C    0.50334   0.17381   0.01100   1.000
    C397    C    0.50334   0.17381   0.51100   1.000
    C398    C    0.50334   0.67380   0.01100   1.000
    C399    C    0.50333   0.67380   0.51100   1.000
    C400    C    0.47035   0.28968   0.27749   1.000
    C401    C    0.47034   0.28968   0.77749   1.000
    C402    C    0.47034   0.78967   0.27749   1.000
    C403    C    0.47034   0.78967   0.77749   1.000
    C404    C    0.97033   0.28968   0.27749   1.000
    C405    C    0.97033   0.28968   0.77749   1.000
    C406    C    0.97033   0.78967   0.27749   1.000
    C407    C    0.97033   0.78967   0.77749   1.000
    C408    C    0.37969   0.25231   0.18876   1.000
    C409    C    0.37969   0.25231   0.68876   1.000
    C410    C    0.37968   0.75230   0.18876   1.000
    C411    C    0.37968   0.75230   0.68876   1.000
    C412    C    0.87968   0.25231   0.18876   1.000
    C413    C    0.87968   0.25231   0.68876   1.000
    C414    C    0.87967   0.75230   0.18876   1.000
    C415    C    0.87967   0.75230   0.68876   1.000
    C416    C    0.26037   0.24955   0.07013   1.000
    C417    C    0.26036   0.24955   0.57013   1.000
    C418    C    0.26036   0.74954   0.07013   1.000
    C419    C    0.26036   0.74954   0.57013   1.000
    C420    C    0.76035   0.24955   0.07013   1.000
    C421    C    0.76035   0.24955   0.57013   1.000
    C422    C    0.76035   0.74954   0.07013   1.000
    C423    C    0.76035   0.74954   0.57013   1.000
    C424    C    0.13973   0.24461   0.07750   1.000
    C425    C    0.13972   0.24461   0.57751   1.000
    C426    C    0.13972   0.74460   0.07751   1.000
    C427    C    0.13972   0.74460   0.57751   1.000
    C428    C    0.63972   0.24461   0.07750   1.000
    C429    C    0.63972   0.24461   0.57751   1.000
    C430    C    0.63971   0.74460   0.07751   1.000
    C431    C    0.63971   0.74460   0.57751   1.000
    C432    C    0.19687   0.44494   0.02260   1.000
    C433    C    0.19687   0.44494   0.52265   1.000
    C434    C    0.19687   0.94494   0.02265   1.000
    C435    C    0.19687   0.94493   0.52264   1.000
    C436    C    0.69686   0.44495   0.02260   1.000
    C437    C    0.69686   0.44494   0.52260   1.000
    C438    C    0.69686   0.94494   0.02265   1.000
    C439    C    0.69686   0.94493   0.52264   1.000
    C440    C    0.01043   0.25010   0.42956   1.000
    C441    C    0.01043   0.25009   0.92956   1.000
    C442    C    0.01043   0.75009   0.42956   1.000
    C443    C    0.01042   0.75009   0.92956   1.000
    C444    C    0.51042   0.25010   0.42956   1.000
    C445    C    0.51042   0.25009   0.92956   1.000
    C446    C    0.51041   0.75009   0.42956   1.000
    C447    C    0.51041   0.75009   0.92956   1.000
    C448    C    0.38981   0.25568   0.42291   1.000
    C449    C    0.38980   0.25568   0.92291   1.000
    C450    C    0.38980   0.75567   0.42291   1.000
    C451    C    0.38980   0.75567   0.92290   1.000
    C452    C    0.88980   0.25568   0.42291   1.000
    C453    C    0.88979   0.25568   0.92291   1.000
    C454    C    0.88979   0.75567   0.42291   1.000
    C455    C    0.88979   0.75567   0.92290   1.000
    C456    C    0.44674   0.05468   0.47680   1.000
    C457    C    0.44673   0.05468   0.97686   1.000
    C458    C    0.44673   0.55467   0.47686   1.000
    C459    C    0.44673   0.55467   0.97685   1.000
    C460    C    0.94673   0.05468   0.47680   1.000
    C461    C    0.94672   0.05468   0.97686   1.000
    C462    C    0.94672   0.55467   0.47686   1.000
    C463    C    0.94672   0.55467   0.97685   1.000
    O464    O    0.16724   0.80195   0.99404   1.000
    O465    O    0.66723   0.80195   0.99404   1.000
    O466    O    0.66723   0.30196   0.99563   1.000
    O467    O    0.16725   0.30196   0.99563   1.000
    O468    O    0.81488   0.57794   0.02730   1.000
    O469    O    0.81488   0.07795   0.02729   1.000
    O470    O    0.31489   0.57794   0.02730   1.000
    O471    O    0.31489   0.07795   0.02729   1.000
    O472    O    0.28954   0.42219   0.01248   1.000
    O473    O    0.22471   0.42435   0.01570   1.000
    O474    O    0.25297   0.36496   0.99889   1.000
    O475    O    0.78953   0.92219   0.01248   1.000
    O476    O    0.72470   0.92435   0.01573   1.000
    O477    O    0.75296   0.86495   0.99889   1.000
    O478    O    0.28954   0.92219   0.01248   1.000
    O479    O    0.22471   0.92435   0.01573   1.000
    O480    O    0.25297   0.86495   0.99889   1.000
    O481    O    0.78953   0.42219   0.01248   1.000
    O482    O    0.72470   0.42436   0.01571   1.000
    O483    O    0.75296   0.36496   0.99889   1.000
    O484    O    0.47193   0.69578   0.01145   1.000
    O485    O    0.52766   0.68886   0.01891   1.000
    O486    O    0.50287   0.63496   0.00100   1.000
    O487    O    0.97193   0.19579   0.01145   1.000
    O488    O    0.02768   0.18887   0.01891   1.000
    O489    O    0.00289   0.13497   0.00100   1.000
    O490    O    0.97193   0.69578   0.01145   1.000
    O491    O    0.02768   0.68886   0.01891   1.000
    O492    O    0.00288   0.63496   0.00100   1.000
    O493    O    0.47193   0.19579   0.01145   1.000
    O494    O    0.52767   0.18887   0.01891   1.000
    O495    O    0.50288   0.13497   0.00100   1.000
    O496    O    0.43453   0.75736   0.05388   1.000
    O497    O    0.44325   0.72982   0.98016   1.000
    O498    O    0.41723   0.69785   0.00438   1.000
    O499    O    0.93452   0.75736   0.05388   1.000
    O500    O    0.94324   0.72982   0.98016   1.000
    O501    O    0.91722   0.69785   0.00438   1.000
    O502    O    0.93452   0.25737   0.05385   1.000
    O503    O    0.94324   0.22983   0.98016   1.000
    O504    O    0.91722   0.19786   0.00439   1.000
    O505    O    0.43453   0.25737   0.05385   1.000
    O506    O    0.44325   0.22983   0.98016   1.000
    O507    O    0.41723   0.19786   0.00439   1.000
    O508    O    0.84635   0.92491   0.02373   1.000
    O509    O    0.82728   0.98607   0.04793   1.000
    O510    O    0.83469   0.93502   0.98638   1.000
    O511    O    0.84636   0.42492   0.02373   1.000
    O512    O    0.82728   0.48607   0.04793   1.000
    O513    O    0.83469   0.43503   0.98638   1.000
    O514    O    0.34636   0.92491   0.02373   1.000
    O515    O    0.32729   0.98607   0.04793   1.000
    O516    O    0.33470   0.93502   0.98638   1.000
    O517    O    0.34637   0.42492   0.02373   1.000
    O518    O    0.32729   0.48607   0.04793   1.000
    O519    O    0.33471   0.43503   0.98638   1.000
    O520    O    0.27336   0.06859   0.03668   1.000
    O521    O    0.27335   0.56858   0.03669   1.000
    O522    O    0.77334   0.06859   0.03668   1.000
    O523    O    0.77334   0.56858   0.03669   1.000
    O524    O    0.58446   0.56524   0.01370   1.000
    O525    O    0.08447   0.56524   0.01371   1.000
    O526    O    0.58447   0.06525   0.01372   1.000
    O527    O    0.08448   0.06525   0.01372   1.000
    O528    O    0.31290   0.05632   0.06466   1.000
    O529    O    0.29105   0.14250   0.09350   1.000
    O530    O    0.81289   0.05632   0.06466   1.000
    O531    O    0.79104   0.14250   0.09350   1.000
    O532    O    0.31289   0.55631   0.06466   1.000
    O533    O    0.29104   0.64249   0.09351   1.000
    O534    O    0.81288   0.55631   0.06466   1.000
    O535    O    0.79103   0.64249   0.09351   1.000
    O536    O    0.22815   0.25379   0.06086   1.000
    O537    O    0.16784   0.25132   0.06455   1.000
    O538    O    0.19321   0.27005   0.01984   1.000
    O539    O    0.22815   0.75378   0.06086   1.000
    O540    O    0.16783   0.75131   0.06456   1.000
    O541    O    0.19321   0.77004   0.01984   1.000
    O542    O    0.72814   0.25379   0.06086   1.000
    O543    O    0.66783   0.25132   0.06455   1.000
    O544    O    0.69320   0.27005   0.01984   1.000
    O545    O    0.72814   0.75378   0.06086   1.000
    O546    O    0.66782   0.75131   0.06456   1.000
    O547    O    0.69320   0.77004   0.01984   1.000
    O548    O    0.77234   0.72669   0.10376   1.000
    O549    O    0.27235   0.72669   0.10376   1.000
    O550    O    0.77235   0.22670   0.10376   1.000
    O551    O    0.27236   0.22670   0.10376   1.000
    O552    O    0.35572   0.54176   0.08900   1.000
    O553    O    0.31273   0.53804   0.10662   1.000
    O554    O    0.85571   0.54176   0.08900   1.000
    O555    O    0.81271   0.53804   0.10662   1.000
    O556    O    0.35573   0.04177   0.08901   1.000
    O557    O    0.31273   0.03805   0.10663   1.000
    O558    O    0.85571   0.04177   0.08901   1.000
    O559    O    0.81272   0.03805   0.10660   1.000
    O560    O    0.90235   0.80917   0.09476   1.000
    O561    O    0.40236   0.80917   0.09476   1.000
    O562    O    0.40236   0.30918   0.09474   1.000
    O563    O    0.90235   0.30918   0.09474   1.000
    O564    O    0.94927   0.31894   0.09995   1.000
    O565    O    0.93057   0.29209   0.13121   1.000
    O566    O    0.44929   0.31894   0.09995   1.000
    O567    O    0.43058   0.29209   0.13121   1.000
    O568    O    0.94927   0.81893   0.09998   1.000
    O569    O    0.93057   0.79208   0.13124   1.000
    O570    O    0.44928   0.81893   0.09998   1.000
    O571    O    0.43058   0.79208   0.13124   1.000
    O572    O    0.83200   0.72808   0.16307   1.000
    O573    O    0.75227   0.70702   0.17992   1.000
    O574    O    0.33201   0.72808   0.16307   1.000
    O575    O    0.25229   0.70702   0.17992   1.000
    O576    O    0.33202   0.22809   0.16308   1.000
    O577    O    0.25229   0.20703   0.17992   1.000
    O578    O    0.83201   0.22809   0.16308   1.000
    O579    O    0.75228   0.20703   0.17992   1.000
    O580    O    0.90614   0.76976   0.17769   1.000
    O581    O    0.96026   0.79854   0.19398   1.000
    O582    O    0.90615   0.26977   0.17769   1.000
    O583    O    0.96027   0.29855   0.19398   1.000
    O584    O    0.40615   0.76976   0.17769   1.000
    O585    O    0.46027   0.79854   0.19398   1.000
    O586    O    0.40616   0.26977   0.17769   1.000
    O587    O    0.46028   0.29855   0.19398   1.000
    O588    O    0.89224   0.25390   0.22214   1.000
    O589    O    0.89224   0.75389   0.22214   1.000
    O590    O    0.39225   0.75389   0.22214   1.000
    O591    O    0.39225   0.25390   0.22213   1.000
    O592    O    0.64052   0.75442   0.22716   1.000
    O593    O    0.14053   0.75442   0.22716   1.000
    O594    O    0.14053   0.25443   0.22717   1.000
    O595    O    0.64052   0.25443   0.22717   1.000
    O596    O    0.01296   0.82447   0.22233   1.000
    O597    O    0.97912   0.79977   0.24941   1.000
    O598    O    0.01297   0.32448   0.22233   1.000
    O599    O    0.97913   0.29978   0.24941   1.000
    O600    O    0.51296   0.82447   0.22233   1.000
    O601    O    0.47913   0.79977   0.24941   1.000
    O602    O    0.51297   0.32448   0.22233   1.000
    O603    O    0.47914   0.29978   0.24941   1.000
    O604    O    0.68756   0.22738   0.23349   1.000
    O605    O    0.72892   0.20005   0.25049   1.000
    O606    O    0.68755   0.72738   0.23349   1.000
    O607    O    0.72892   0.70004   0.25049   1.000
    O608    O    0.18756   0.72738   0.23349   1.000
    O609    O    0.22893   0.70004   0.25049   1.000
    O610    O    0.18757   0.22739   0.23349   1.000
    O611    O    0.22893   0.20005   0.25049   1.000
    O612    O    0.14230   0.74617   0.27793   1.000
    O613    O    0.14231   0.24618   0.27793   1.000
    O614    O    0.64230   0.24618   0.27793   1.000
    O615    O    0.64229   0.74617   0.27793   1.000
    O616    O    0.43758   0.27258   0.26650   1.000
    O617    O    0.39036   0.24569   0.27290   1.000
    O618    O    0.93757   0.27258   0.26651   1.000
    O619    O    0.89035   0.24569   0.27291   1.000
    O620    O    0.43758   0.77257   0.26651   1.000
    O621    O    0.39035   0.74568   0.27294   1.000
    O622    O    0.93756   0.77257   0.26651   1.000
    O623    O    0.89034   0.74568   0.27294   1.000
    O624    O    0.76255   0.67521   0.27748   1.000
    O625    O    0.26256   0.67521   0.27748   1.000
    O626    O    0.76256   0.17522   0.27748   1.000
    O627    O    0.26257   0.17522   0.27748   1.000
    O628    O    0.50237   0.29289   0.32001   1.000
    O629    O    0.00236   0.79288   0.32001   1.000
    O630    O    0.00237   0.29289   0.32001   1.000
    O631    O    0.50236   0.79288   0.32001   1.000
    O632    O    0.21001   0.70129   0.30595   1.000
    O633    O    0.71001   0.20130   0.30595   1.000
    O634    O    0.71000   0.70129   0.30595   1.000
    O635    O    0.21002   0.20130   0.30595   1.000
    O636    O    0.15606   0.23024   0.32234   1.000
    O637    O    0.08206   0.27194   0.33693   1.000
    O638    O    0.15606   0.73023   0.32234   1.000
    O639    O    0.08206   0.77193   0.33693   1.000
    O640    O    0.65605   0.23024   0.32234   1.000
    O641    O    0.58205   0.27194   0.33693   1.000
    O642    O    0.65605   0.73023   0.32234   1.000
    O643    O    0.58204   0.77193   0.33693   1.000
    O644    O    0.68030   0.70779   0.36873   1.000
    O645    O    0.68031   0.20780   0.36873   1.000
    O646    O    0.18031   0.70779   0.36873   1.000
    O647    O    0.18032   0.20780   0.36873   1.000
    O648    O    0.02241   0.77308   0.39605   1.000
    O649    O    0.04113   0.85746   0.40646   1.000
    O650    O    0.52240   0.77309   0.39605   1.000
    O651    O    0.54112   0.85747   0.40646   1.000
    O652    O    0.52241   0.27309   0.39605   1.000
    O653    O    0.54113   0.35747   0.40646   1.000
    O654    O    0.02242   0.27309   0.39605   1.000
    O655    O    0.04114   0.35747   0.40646   1.000
    O656    O    0.56256   0.96209   0.39344   1.000
    O657    O    0.06258   0.46210   0.39344   1.000
    O658    O    0.56257   0.46210   0.39344   1.000
    O659    O    0.06258   0.96209   0.39344   1.000
    O660    O    0.19888   0.68090   0.39994   1.000
    O661    O    0.69887   0.68090   0.39994   1.000
    O662    O    0.69887   0.18091   0.39994   1.000
    O663    O    0.19888   0.18091   0.39994   1.000
    O664    O    0.10563   0.45862   0.41104   1.000
    O665    O    0.10562   0.95861   0.41104   1.000
    O666    O    0.60562   0.45862   0.41104   1.000
    O667    O    0.60561   0.95861   0.41104   1.000
    O668    O    0.15200   0.19070   0.40520   1.000
    O669    O    0.18436   0.24249   0.44609   1.000
    O670    O    0.15199   0.69069   0.40520   1.000
    O671    O    0.18435   0.74248   0.44609   1.000
    O672    O    0.65198   0.19070   0.40520   1.000
    O673    O    0.68434   0.24249   0.44609   1.000
    O674    O    0.65198   0.69069   0.40520   1.000
    O675    O    0.68434   0.74248   0.44609   1.000
    O676    O    0.56289   0.94378   0.43537   1.000
    O677    O    0.57715   0.01415   0.45213   1.000
    O678    O    0.06290   0.94378   0.43537   1.000
    O679    O    0.07717   0.01415   0.45213   1.000
    O680    O    0.56290   0.44379   0.43537   1.000
    O681    O    0.57715   0.51415   0.45213   1.000
    O682    O    0.06291   0.44379   0.43537   1.000
    O683    O    0.07717   0.51415   0.45213   1.000
    O684    O    0.41789   0.74877   0.43567   1.000
    O685    O    0.91788   0.74877   0.43567   1.000
    O686    O    0.91788   0.24878   0.43567   1.000
    O687    O    0.41789   0.24878   0.43567   1.000
    O688    O    0.97820   0.24599   0.43899   1.000
    O689    O    0.47820   0.74598   0.43899   1.000
    O690    O    0.47820   0.24599   0.43899   1.000
    O691    O    0.97820   0.74598   0.43899   1.000
    O692    O    0.44325   0.72982   0.48015   1.000
    O693    O    0.94324   0.72982   0.48015   1.000
    O694    O    0.44325   0.22983   0.47971   1.000
    O695    O    0.94324   0.22983   0.47971   1.000
    O696    O    0.02348   0.43124   0.46339   1.000
    O697    O    0.06510   0.42205   0.47264   1.000
    O698    O    0.52348   0.93123   0.46339   1.000
    O699    O    0.56508   0.92204   0.47260   1.000
    O700    O    0.02348   0.93123   0.46339   1.000
    O701    O    0.06509   0.92204   0.47264   1.000
    O702    O    0.52348   0.43124   0.46339   1.000
    O703    O    0.56508   0.42205   0.47264   1.000
    O704    O    0.33470   0.93502   0.48638   1.000
    O705    O    0.33471   0.43503   0.48638   1.000
    O706    O    0.83469   0.93502   0.48638   1.000
    O707    O    0.83470   0.43503   0.48638   1.000
    O708    O    0.59624   0.57539   0.47635   1.000
    O709    O    0.09626   0.07539   0.47639   1.000
    O710    O    0.59625   0.07540   0.47639   1.000
    O711    O    0.09625   0.57539   0.47639   1.000
    O712    O    0.77770   0.81118   0.48120   1.000
    O713    O    0.77771   0.31119   0.48120   1.000
    O714    O    0.27771   0.81118   0.48120   1.000
    O715    O    0.27772   0.31119   0.48120   1.000
    O716    O    0.97458   0.07541   0.48390   1.000
    O717    O    0.47458   0.07541   0.48390   1.000
    O718    O    0.47457   0.57540   0.48393   1.000
    O719    O    0.97457   0.57540   0.48393   1.000
    O720    O    0.03940   0.57786   0.48745   1.000
    O721    O    0.08447   0.56524   0.51371   1.000
    O722    O    0.53939   0.57786   0.48745   1.000
    O723    O    0.58446   0.56524   0.51371   1.000
    O724    O    0.03941   0.07787   0.48745   1.000
    O725    O    0.08448   0.06525   0.51371   1.000
    O726    O    0.53940   0.07787   0.48745   1.000
    O727    O    0.58447   0.06525   0.51371   1.000
    O728    O    0.72193   0.30411   0.48853   1.000
    O729    O    0.66723   0.30196   0.49563   1.000
    O730    O    0.69320   0.27005   0.51984   1.000
    O731    O    0.72192   0.80410   0.48853   1.000
    O732    O    0.66723   0.80195   0.49562   1.000
    O733    O    0.69320   0.77004   0.51954   1.000
    O734    O    0.22194   0.30411   0.48853   1.000
    O735    O    0.16725   0.30196   0.49563   1.000
    O736    O    0.19321   0.27005   0.51984   1.000
    O737    O    0.22194   0.80410   0.48853   1.000
    O738    O    0.16724   0.80195   0.49562   1.000
    O739    O    0.19321   0.77004   0.51954   1.000
    O740    O    0.75296   0.86495   0.49889   1.000
    O741    O    0.25297   0.36496   0.49889   1.000
    O742    O    0.25297   0.86495   0.49889   1.000
    O743    O    0.75296   0.36496   0.49889   1.000
    O744    O    0.00288   0.63496   0.50099   1.000
    O745    O    0.00289   0.13497   0.50099   1.000
    O746    O    0.50287   0.63496   0.50099   1.000
    O747    O    0.50288   0.13497   0.50099   1.000
    O748    O    0.91722   0.19786   0.50394   1.000
    O749    O    0.91721   0.69785   0.50438   1.000
    O750    O    0.41723   0.19786   0.50394   1.000
    O751    O    0.41723   0.69785   0.50438   1.000
    O752    O    0.81487   0.57794   0.52730   1.000
    O753    O    0.81488   0.07795   0.52730   1.000
    O754    O    0.31488   0.57794   0.52730   1.000
    O755    O    0.31489   0.07795   0.52730   1.000
    O756    O    0.78953   0.92218   0.51248   1.000
    O757    O    0.72469   0.92434   0.51572   1.000
    O758    O    0.28954   0.92218   0.51248   1.000
    O759    O    0.22470   0.92434   0.51572   1.000
    O760    O    0.78953   0.42219   0.51248   1.000
    O761    O    0.72470   0.42435   0.51571   1.000
    O762    O    0.28954   0.42219   0.51248   1.000
    O763    O    0.22471   0.42435   0.51573   1.000
    O764    O    0.47193   0.69578   0.51145   1.000
    O765    O    0.52766   0.68886   0.51890   1.000
    O766    O    0.47193   0.19579   0.51100   1.000
    O767    O    0.52767   0.18887   0.51891   1.000
    O768    O    0.97193   0.69578   0.51145   1.000
    O769    O    0.02767   0.68886   0.51890   1.000
    O770    O    0.43453   0.25736   0.55343   1.000
    O771    O    0.97193   0.19579   0.51100   1.000
    O772    O    0.02768   0.18887   0.51891   1.000
    O773    O    0.93452   0.25736   0.55343   1.000
    O774    O    0.43452   0.75736   0.55388   1.000
    O775    O    0.93451   0.75736   0.55388   1.000
    O776    O    0.34636   0.42492   0.52374   1.000
    O777    O    0.32729   0.48607   0.54793   1.000
    O778    O    0.84635   0.42492   0.52374   1.000
    O779    O    0.82728   0.48606   0.54793   1.000
    O780    O    0.34636   0.92491   0.52374   1.000
    O781    O    0.32729   0.98606   0.54793   1.000
    O782    O    0.84635   0.92491   0.52374   1.000
    O783    O    0.82728   0.98606   0.54793   1.000
    O784    O    0.27335   0.56858   0.53669   1.000
    O785    O    0.77334   0.56858   0.53669   1.000
    O786    O    0.77334   0.06859   0.53669   1.000
    O787    O    0.27335   0.06859   0.53669   1.000
    O788    O    0.81288   0.55631   0.56467   1.000
    O789    O    0.79103   0.64249   0.59351   1.000
    O790    O    0.81288   0.05632   0.56467   1.000
    O791    O    0.79103   0.14249   0.59351   1.000
    O792    O    0.31289   0.55631   0.56467   1.000
    O793    O    0.29104   0.64249   0.59351   1.000
    O794    O    0.31290   0.05632   0.56466   1.000
    O795    O    0.29104   0.14249   0.59351   1.000
    O796    O    0.22815   0.75378   0.56056   1.000
    O797    O    0.16783   0.75131   0.56426   1.000
    O798    O    0.72814   0.75378   0.56056   1.000
    O799    O    0.66782   0.75131   0.56426   1.000
    O800    O    0.72814   0.25379   0.56086   1.000
    O801    O    0.66782   0.25132   0.56456   1.000
    O802    O    0.22815   0.25379   0.56086   1.000
    O803    O    0.16783   0.25132   0.56456   1.000
    O804    O    0.27235   0.72669   0.60376   1.000
    O805    O    0.77234   0.22670   0.60376   1.000
    O806    O    0.27235   0.22670   0.60376   1.000
    O807    O    0.77234   0.72669   0.60376   1.000
    O808    O    0.35572   0.04177   0.58900   1.000
    O809    O    0.31273   0.03805   0.60662   1.000
    O810    O    0.35572   0.54176   0.58901   1.000
    O811    O    0.31272   0.53804   0.60663   1.000
    O812    O    0.85571   0.04177   0.58901   1.000
    O813    O    0.81272   0.03805   0.60662   1.000
    O814    O    0.85571   0.54176   0.58901   1.000
    O815    O    0.81271   0.53804   0.60661   1.000
    O816    O    0.40236   0.30918   0.59473   1.000
    O817    O    0.40235   0.80917   0.59476   1.000
    O818    O    0.90235   0.30917   0.59476   1.000
    O819    O    0.90234   0.80917   0.59476   1.000
    O820    O    0.44928   0.31894   0.59998   1.000
    O821    O    0.43058   0.29209   0.63124   1.000
    O822    O    0.94927   0.81893   0.59998   1.000
    O823    O    0.93056   0.79208   0.63124   1.000
    O824    O    0.94927   0.31894   0.59998   1.000
    O825    O    0.93057   0.29209   0.63124   1.000
    O826    O    0.44928   0.81893   0.59998   1.000
    O827    O    0.43057   0.79208   0.63124   1.000
    O828    O    0.33201   0.72808   0.66307   1.000
    O829    O    0.25228   0.70702   0.67992   1.000
    O830    O    0.83200   0.72808   0.66307   1.000
    O831    O    0.75227   0.70702   0.67992   1.000
    O832    O    0.33202   0.22808   0.66308   1.000
    O833    O    0.25229   0.20702   0.67992   1.000
    O834    O    0.83200   0.22808   0.66308   1.000
    O835    O    0.75228   0.20702   0.67992   1.000
    O836    O    0.90614   0.76976   0.67769   1.000
    O837    O    0.96026   0.79854   0.69398   1.000
    O838    O    0.90614   0.26977   0.67769   1.000
    O839    O    0.96026   0.29855   0.69398   1.000
    O840    O    0.40615   0.76976   0.67769   1.000
    O841    O    0.46027   0.79854   0.69398   1.000
    O842    O    0.40616   0.26977   0.67769   1.000
    O843    O    0.46028   0.29855   0.69398   1.000
    O844    O    0.89223   0.75389   0.72215   1.000
    O845    O    0.89224   0.25390   0.72215   1.000
    O846    O    0.39224   0.75389   0.72215   1.000
    O847    O    0.39225   0.25390   0.72215   1.000
    O848    O    0.14053   0.25443   0.72712   1.000
    O849    O    0.64052   0.25443   0.72712   1.000
    O850    O    0.14053   0.75442   0.72716   1.000
    O851    O    0.64052   0.75442   0.72716   1.000
    O852    O    0.51296   0.82447   0.72233   1.000
    O853    O    0.47913   0.79977   0.74941   1.000
    O854    O    0.51296   0.32448   0.72233   1.000
    O855    O    0.47913   0.29978   0.74941   1.000
    O856    O    0.01296   0.32448   0.72233   1.000
    O857    O    0.97912   0.29978   0.74941   1.000
    O858    O    0.01296   0.82447   0.72232   1.000
    O859    O    0.97912   0.79977   0.74941   1.000
    O860    O    0.68755   0.72737   0.73349   1.000
    O861    O    0.72891   0.70004   0.75049   1.000
    O862    O    0.68755   0.22738   0.73349   1.000
    O863    O    0.72892   0.20005   0.75049   1.000
    O864    O    0.18756   0.72737   0.73349   1.000
    O865    O    0.22892   0.70004   0.75049   1.000
    O866    O    0.18756   0.22738   0.73349   1.000
    O867    O    0.22893   0.20005   0.75049   1.000
    O868    O    0.64229   0.24617   0.77794   1.000
    O869    O    0.14231   0.24617   0.77794   1.000
    O870    O    0.14230   0.74617   0.77794   1.000
    O871    O    0.64229   0.74617   0.77794   1.000
    O872    O    0.93757   0.27258   0.76651   1.000
    O873    O    0.89034   0.24569   0.77294   1.000
    O874    O    0.43757   0.77257   0.76651   1.000
    O875    O    0.39035   0.74568   0.77294   1.000
    O876    O    0.43758   0.27258   0.76651   1.000
    O877    O    0.39035   0.24569   0.77294   1.000
    O878    O    0.93756   0.77257   0.76651   1.000
    O879    O    0.89034   0.74568   0.77294   1.000
    O880    O    0.76256   0.17521   0.77747   1.000
    O881    O    0.26257   0.17521   0.77747   1.000
    O882    O    0.26256   0.67521   0.77748   1.000
    O883    O    0.76255   0.67521   0.77748   1.000
    O884    O    0.50237   0.29288   0.82001   1.000
    O885    O    0.00237   0.29288   0.82001   1.000
    O886    O    0.00236   0.79288   0.82001   1.000
    O887    O    0.50236   0.79288   0.82001   1.000
    O888    O    0.21002   0.20130   0.80595   1.000
    O889    O    0.21001   0.70129   0.80595   1.000
    O890    O    0.71000   0.20130   0.80595   1.000
    O891    O    0.71000   0.70129   0.80595   1.000
    O892    O    0.65604   0.73023   0.82234   1.000
    O893    O    0.58204   0.77193   0.83693   1.000
    O894    O    0.65605   0.23024   0.82234   1.000
    O895    O    0.58205   0.27193   0.83693   1.000
    O896    O    0.15605   0.73023   0.82234   1.000
    O897    O    0.08205   0.77193   0.83693   1.000
    O898    O    0.15606   0.23023   0.82234   1.000
    O899    O    0.08206   0.27193   0.83693   1.000
    O900    O    0.18032   0.20780   0.86873   1.000
    O901    O    0.68030   0.70779   0.86868   1.000
    O902    O    0.68030   0.20780   0.86873   1.000
    O903    O    0.18031   0.70779   0.86868   1.000
    O904    O    0.02241   0.27309   0.89605   1.000
    O905    O    0.04113   0.35747   0.90646   1.000
    O906    O    0.02241   0.77308   0.89605   1.000
    O907    O    0.04113   0.85746   0.90646   1.000
    O908    O    0.52240   0.27309   0.89605   1.000
    O909    O    0.54112   0.35747   0.90646   1.000
    O910    O    0.52240   0.77308   0.89605   1.000
    O911    O    0.54112   0.85746   0.90646   1.000
    O912    O    0.56256   0.96209   0.89344   1.000
    O913    O    0.56257   0.46209   0.89344   1.000
    O914    O    0.06257   0.96209   0.89344   1.000
    O915    O    0.06258   0.46209   0.89344   1.000
    O916    O    0.19888   0.68090   0.89985   1.000
    O917    O    0.69887   0.68090   0.89985   1.000
    O918    O    0.69887   0.18091   0.89994   1.000
    O919    O    0.19888   0.18091   0.89994   1.000
    O920    O    0.10562   0.95862   0.91103   1.000
    O921    O    0.60561   0.95861   0.91103   1.000
    O922    O    0.60561   0.45862   0.91103   1.000
    O923    O    0.10562   0.45862   0.91103   1.000
    O924    O    0.15199   0.69069   0.90515   1.000
    O925    O    0.18435   0.74248   0.94604   1.000
    O926    O    0.65198   0.69069   0.90515   1.000
    O927    O    0.68434   0.74248   0.94604   1.000
    O928    O    0.15199   0.19070   0.90521   1.000
    O929    O    0.18435   0.24249   0.94609   1.000
    O930    O    0.65198   0.19070   0.90521   1.000
    O931    O    0.68434   0.24249   0.94609   1.000
    O932    O    0.06291   0.44378   0.93537   1.000
    O933    O    0.07716   0.51415   0.95212   1.000
    O934    O    0.06290   0.94378   0.93537   1.000
    O935    O    0.07716   0.01415   0.95212   1.000
    O936    O    0.56289   0.44378   0.93537   1.000
    O937    O    0.57715   0.51415   0.95212   1.000
    O938    O    0.56289   0.94378   0.93537   1.000
    O939    O    0.57715   0.01415   0.95212   1.000
    O940    O    0.91788   0.74877   0.93566   1.000
    O941    O    0.41789   0.74877   0.93566   1.000
    O942    O    0.91788   0.24878   0.93567   1.000
    O943    O    0.41789   0.24878   0.93567   1.000
    O944    O    0.97820   0.24599   0.93899   1.000
    O945    O    0.97819   0.74598   0.93899   1.000
    O946    O    0.47820   0.24599   0.93899   1.000
    O947    O    0.47819   0.74598   0.93899   1.000
    O948    O    0.52347   0.93123   0.96339   1.000
    O949    O    0.56508   0.92204   0.97260   1.000
    O950    O    0.02348   0.43124   0.96335   1.000
    O951    O    0.06509   0.42205   0.97260   1.000
    O952    O    0.02347   0.93123   0.96339   1.000
    O953    O    0.06509   0.92204   0.97264   1.000
    O954    O    0.52348   0.43124   0.96335   1.000
    O955    O    0.56508   0.42205   0.97260   1.000
    O956    O    0.59624   0.57539   0.97639   1.000
    O957    O    0.09625   0.57539   0.97639   1.000
    O958    O    0.59624   0.07540   0.97639   1.000
    O959    O    0.09626   0.07540   0.97639   1.000
    O960    O    0.77770   0.81118   0.98119   1.000
    O961    O    0.77770   0.31119   0.98119   1.000
    O962    O    0.27771   0.81118   0.98119   1.000
    O963    O    0.27771   0.31118   0.98119   1.000
    O964    O    0.97457   0.57540   0.98392   1.000
    O965    O    0.47457   0.57540   0.98392   1.000
    O966    O    0.97457   0.07541   0.98392   1.000
    O967    O    0.47457   0.07541   0.98392   1.000
    O968    O    0.03940   0.07787   0.98745   1.000
    O969    O    0.03940   0.57786   0.98745   1.000
    O970    O    0.53939   0.07787   0.98745   1.000
    O971    O    0.53939   0.57786   0.98745   1.000
    O972    O    0.72192   0.80410   0.98852   1.000
    O973    O    0.72193   0.30411   0.98852   1.000
    O974    O    0.22193   0.80410   0.98852   1.000
    O975    O    0.22194   0.30411   0.98852   1.000
loop_
    _geom_bond_atom_site_label_1
    _geom_bond_atom_site_label_2
    _geom_bond_distance
    _geom_bond_site_symmetry_2
    _ccdc_geom_bond_type
    C75    O464      0.55218  1_554   S
    C259   O464      0.55218      .   S
    C79    O465      0.55219  1_554   S
    C263   O465      0.55219      .   S
    C76    O466      0.54790  1_554   S
    C261   O466      0.54790      .   S
    C72    O467      0.54790  1_554   S
    C257   O467      0.54790      .   S
    C102   O468      0.51605      .   S
    C358   O468      0.51605      .   S
    C100   O469      0.51590      .   S
    C356   O469      0.51590      .   S
    C98    O470      0.51605      .   S
    C354   O470      0.51605      .   S
    C96    O471      0.51590      .   S
    C352   O471      0.51590      .   S
    C272   O472      0.76354      .   S
    C264   O472      0.76354      .   S
    C272   O473      0.62672      .   S
    C432   O473      0.62672      .   S
    C272   O474      0.67487  1_554   S
    C361   O474      0.67487      .   S
    C278   O475      0.76356      .   S
    C270   O475      0.76356      .   S
    C278   O476      0.62667      .   S
    C438   O476      0.62667      .   S
    C278   O477      0.67484  1_554   S
    C367   O477      0.67484      .   S
    C274   O478      0.76356      .   S
    C266   O478      0.76356      .   S
    C274   O479      0.62666      .   S
    C434   O479      0.62666      .   S
    C274   O480      0.67485  1_554   S
    C363   O480      0.67485      .   S
    C276   O481      0.76356      .   S
    C268   O481      0.76356      .   S
    C276   O482      0.62674      .   S
    C436   O482      0.62674      .   S
    C276   O483      0.67483  1_554   S
    C365   O483      0.67483      .   S
    C398   O484      0.72454      .   S
    C330   O484      0.72454      .   S
    C398   O485      0.51735      .   S
    C142   O485      0.51735      .   S
    C398   O486      0.67488      .   S
    C351   O486      0.67488  1_556   S
    C392   O487      0.72468  1_455   S
    C332   O487      0.72468      .   S
    C392   O488      0.51734      .   S
    C136   O488      0.51734      .   S
    C392   O489      0.67487      .   S
    C345   O489      0.67487  1_556   S
    C394   O490      0.72471  1_455   S
    C334   O490      0.72471      .   S
    C394   O491      0.51735      .   S
    C138   O491      0.51735      .   S
    C394   O492      0.67488      .   S
    C347   O492      0.67488  1_556   S
    C396   O493      0.72452      .   S
    C328   O493      0.72452      .   S
    C396   O494      0.51734      .   S
    C140   O494      0.51734      .   S
    C396   O495      0.67487      .   S
    C349   O495      0.67487  1_556   S
    C330   O496      0.77781      .   S
    C290   O496      0.77781      .   S
    C330   O497      0.77141  1_554   S
    C323   O497      0.77141      .   S
    C330   O498      0.54795      .   S
    C170   O498      0.54795  1_556   S
    C334   O499      0.77781      .   S
    C294   O499      0.77781      .   S
    C334   O500      0.77141  1_554   S
    C327   O500      0.77141      .   S
    C334   O501      0.54794      .   S
    C174   O501      0.54794  1_556   S
    C332   O502      0.77746      .   S
    C292   O502      0.77746      .   S
    C332   O503      0.77150  1_554   S
    C325   O503      0.77150      .   S
    C332   O504      0.54794      .   S
    C172   O504      0.54794  1_556   S
    C328   O505      0.77745      .   S
    C288   O505      0.77745      .   S
    C328   O506      0.77150  1_554   S
    C321   O506      0.77150      .   S
    C328   O507      0.54793      .   S
    C169   O507      0.54793  1_556   S
    C270   O508      0.54924      .   S
    C94    O508      0.54924      .   S
    C270   O509      0.76489      .   S
    C244   O509      0.76489  1_545   S
    C270   O510      0.55124  1_554   S
    C87    O510      0.55124      .   S
    C268   O511      0.54924      .   S
    C92    O511      0.54924      .   S
    C268   O512      0.76475      .   S
    C246   O512      0.76475      .   S
    C268   O513      0.55124  1_554   S
    C85    O513      0.55124      .   S
    C266   O514      0.54923      .   S
    C90    O514      0.54923      .   S
    C266   O515      0.76489      .   S
    C240   O515      0.76489  1_545   S
    C266   O516      0.55115  1_554   S
    C83    O516      0.55115      .   S
    C264   O517      0.54924      .   S
    C88    O517      0.54924      .   S
    C264   O518      0.76475      .   S
    C242   O518      0.76475      .   S
    C264   O519      0.55124  1_554   S
    C81    O519      0.55124      .   S
    C104   O520      0.51434      .   S
    C352   O520      0.51434      .   S
    C106   O521      0.51439      .   S
    C354   O521      0.51439      .   S
    C108   O522      0.51435      .   S
    C356   O522      0.51435      .   S
    C110   O523      0.51439      .   S
    C358   O523      0.51439      .   S
    C182   O524      0.55102      .   S
    C343   O524      0.55102  1_556   S
    C178   O525      0.55120      .   S
    C339   O525      0.55120  1_556   S
    C180   O526      0.55130      .   S
    C341   O526      0.55130  1_556   S
    C176   O527      0.55130      .   S
    C337   O527      0.55130  1_556   S
    C352   O528      0.74341      .   S
    C240   O528      0.74341      .   S
    C352   O529      1.04416      .   S
    C0     O529      1.04416      .   S
    C356   O530      0.74342      .   S
    C244   O530      0.74342      .   S
    C356   O531      1.04416      .   S
    C4     O531      1.04416      .   S
    C354   O532      0.74320      .   S
    C242   O532      0.74320      .   S
    C354   O533      1.04409      .   S
    C2     O533      1.04409      .   S
    C358   O534      0.74320      .   S
    C246   O534      0.74320      .   S
    C358   O535      1.04410      .   S
    C6     O535      1.04410      .   S
    C248   O536      0.64587      .   S
    C416   O536      0.64587      .   S
    C248   O537      0.62510      .   S
    C424   O537      0.62510      .   S
    C248   O538      0.77148      .   S
    C257   O538      0.77148  1_556   S
    C250   O539      0.64587      .   S
    C418   O539      0.64587      .   S
    C250   O540      0.62515      .   S
    C426   O540      0.62515      .   S
    C250   O541      0.77149      .   S
    C259   O541      0.77149  1_556   S
    C252   O542      0.64587      .   S
    C420   O542      0.64587      .   S
    C252   O543      0.62509      .   S
    C428   O543      0.62509      .   S
    C252   O544      0.77148      .   S
    C261   O544      0.77148  1_556   S
    C254   O545      0.64587      .   S
    C422   O545      0.64587      .   S
    C254   O546      0.62514      .   S
    C430   O546      0.62514      .   S
    C254   O547      0.77148      .   S
    C263   O547      0.77148  1_556   S
    C422   O548      0.99505      .   S
    C6     O548      0.99505      .   S
    C418   O549      0.99506      .   S
    C2     O549      0.99506      .   S
    C420   O550      0.99514      .   S
    C4     O550      0.99514      .   S
    C416   O551      0.99514      .   S
    C0     O551      0.99514      .   S
    C242   O552      0.54841      .   S
    C66    O552      0.54841      .   S
    C242   O553      0.54912      .   S
    C58    O553      0.54912      .   S
    C246   O554      0.54841      .   S
    C70    O554      0.54841      .   S
    C246   O555      0.54912      .   S
    C62    O555      0.54912      .   S
    C240   O556      0.54841      .   S
    C64    O556      0.54841      .   S
    C240   O557      0.54913      .   S
    C56    O557      0.54913      .   S
    C244   O558      0.54841      .   S
    C68    O558      0.54841      .   S
    C244   O559      0.54872      .   S
    C60    O559      0.54872      .   S
    C134   O560      0.54949      .   S
    C294   O560      0.54949      .   S
    C130   O561      0.54949      .   S
    C290   O561      0.54949      .   S
    C128   O562      0.54931      .   S
    C288   O562      0.54931      .   S
    C132   O563      0.54931      .   S
    C292   O563      0.54931      .   S
    C292   O564      0.55047      .   S
    C124   O564      0.55047      .   S
    C292   O565      0.74570      .   S
    C308   O565      0.74570      .   S
    C288   O566      0.55047      .   S
    C120   O566      0.55047      .   S
    C288   O567      0.74570      .   S
    C304   O567      0.74570      .   S
    C294   O568      0.55065      .   S
    C126   O568      0.55065      .   S
    C294   O569      0.74512      .   S
    C310   O569      0.74512      .   S
    C290   O570      0.55065      .   S
    C122   O570      0.55065      .   S
    C290   O571      0.74512      .   S
    C306   O571      0.74512      .   S
    C6     O572      1.00614      .   S
    C414   O572      1.00614      .   S
    C6     O573      0.99629      .   S
    C374   O573      0.99629      .   S
    C2     O574      1.00613      .   S
    C410   O574      1.00613      .   S
    C2     O575      0.99629      .   S
    C370   O575      0.99629      .   S
    C0     O576      1.00611      .   S
    C408   O576      1.00611      .   S
    C0     O577      0.99621      .   S
    C368   O577      0.99621      .   S
    C4     O578      1.00611      .   S
    C412   O578      1.00611      .   S
    C4     O579      0.99622      .   S
    C372   O579      0.99622      .   S
    C310   O580      0.69585      .   S
    C414   O580      0.69585      .   S
    C310   O581      0.68805      .   S
    C302   O581      0.68805      .   S
    C308   O582      0.69586      .   S
    C412   O582      0.69586      .   S
    C308   O583      0.68805      .   S
    C300   O583      0.68805      .   S
    C306   O584      0.69586      .   S
    C410   O584      0.69586      .   S
    C306   O585      0.68805      .   S
    C298   O585      0.68805      .   S
    C304   O586      0.69586      .   S
    C408   O586      0.69586      .   S
    C304   O587      0.68805      .   S
    C296   O587      0.68805      .   S
    C412   O588      0.67633      .   S
    C284   O588      0.67633      .   S
    C414   O589      0.67633      .   S
    C286   O589      0.67633      .   S
    C410   O590      0.67633      .   S
    C282   O590      0.67633      .   S
    C408   O591      0.67606      .   S
    C280   O591      0.67606      .   S
    C22    O592      0.54163      .   S
    C214   O592      0.54163      .   S
    C18    O593      0.54163      .   S
    C210   O593      0.54163      .   S
    C16    O594      0.54154      .   S
    C208   O594      0.54154      .   S
    C20    O595      0.54155      .   S
    C212   O595      0.54155      .   S
    C302   O596      0.54207  1_655   S
    C146   O596      0.54207      .   S
    C302   O597      0.69253      .   S
    C406   O597      0.69253      .   S
    C300   O598      0.54204  1_655   S
    C144   O598      0.54204      .   S
    C300   O599      0.69253      .   S
    C404   O599      0.69253      .   S
    C298   O600      0.54190      .   S
    C150   O600      0.54190      .   S
    C298   O601      0.69253      .   S
    C402   O601      0.69253      .   S
    C296   O602      0.54186      .   S
    C148   O602      0.54186      .   S
    C296   O603      0.69253      .   S
    C400   O603      0.69253      .   S
    C372   O604      0.67404      .   S
    C212   O604      0.67404      .   S
    C372   O605      0.69255      .   S
    C228   O605      0.69255      .   S
    C374   O606      0.67404      .   S
    C214   O606      0.67404      .   S
    C374   O607      0.69255      .   S
    C230   O607      0.69255      .   S
    C370   O608      0.67404      .   S
    C210   O608      0.67404      .   S
    C370   O609      0.69255      .   S
    C226   O609      0.69255      .   S
    C368   O610      0.67404      .   S
    C208   O610      0.67404      .   S
    C368   O611      0.69255      .   S
    C224   O611      0.69255      .   S
    C210   O612      0.67629      .   S
    C378   O612      0.67629      .   S
    C208   O613      0.67629      .   S
    C376   O613      0.67629      .   S
    C212   O614      0.67629      .   S
    C380   O614      0.67629      .   S
    C214   O615      0.67629      .   S
    C382   O615      0.67629      .   S
    C280   O616      0.67408      .   S
    C400   O616      0.67408      .   S
    C280   O617      0.54135      .   S
    C112   O617      0.54135      .   S
    C284   O618      0.67407      .   S
    C404   O618      0.67407      .   S
    C284   O619      0.54111      .   S
    C116   O619      0.54111      .   S
    C282   O620      0.67407      .   S
    C402   O620      0.67407      .   S
    C282   O621      0.54159      .   S
    C114   O621      0.54159      .   S
    C286   O622      0.67407      .   S
    C406   O622      0.67407      .   S
    C286   O623      0.54159      .   S
    C118   O623      0.54159      .   S
    C54    O624      0.54187      .   S
    C230   O624      0.54187      .   S
    C50    O625      0.54187      .   S
    C226   O625      0.54187      .   S
    C52    O626      0.54191      .   S
    C228   O626      0.54191      .   S
    C48    O627      0.54190      .   S
    C224   O627      0.54190      .   S
    C400   O628      0.99614      .   S
    C12    O628      0.99614      .   S
    C406   O629      0.99626  1_655   S
    C10    O629      0.99626      .   S
    C404   O630      0.99626  1_655   S
    C8     O630      0.99626      .   S
    C402   O631      0.99614      .   S
    C14    O631      0.99614      .   S
    C226   O632      0.68809      .   S
    C234   O632      0.68809      .   S
    C228   O633      0.68809      .   S
    C236   O633      0.68809      .   S
    C230   O634      0.68809      .   S
    C238   O634      0.68809      .   S
    C224   O635      0.68809      .   S
    C232   O635      0.68809      .   S
    C376   O636      0.69595      .   S
    C232   O636      0.69595      .   S
    C376   O637      1.00626      .   S
    C8     O637      1.00626      .   S
    C378   O638      0.69595      .   S
    C234   O638      0.69595      .   S
    C378   O639      1.00626      .   S
    C10    O639      1.00626      .   S
    C380   O640      0.69594      .   S
    C236   O640      0.69594      .   S
    C380   O641      1.00626      .   S
    C12    O641      1.00626      .   S
    C382   O642      0.69595      .   S
    C238   O642      0.69595      .   S
    C382   O643      1.00626      .   S
    C14    O643      1.00626      .   S
    C238   O644      0.74520      .   S
    C222   O644      0.74520      .   S
    C236   O645      0.74520      .   S
    C220   O645      0.74520      .   S
    C234   O646      0.74520      .   S
    C218   O646      0.74520      .   S
    C232   O647      0.74520      .   S
    C216   O647      0.74520      .   S
    C10    O648      0.99479      .   S
    C442   O648      0.99479      .   S
    C10    O649      1.04417      .   S
    C386   O649      1.04417      .   S
    C14    O650      0.99479      .   S
    C446   O650      0.99479      .   S
    C14    O651      1.04416      .   S
    C390   O651      1.04416      .   S
    C12    O652      0.99480      .   S
    C444   O652      0.99480      .   S
    C12    O653      1.04417      .   S
    C388   O653      1.04417      .   S
    C8     O654      0.99479      .   S
    C440   O654      0.99479      .   S
    C8     O655      1.04417      .   S
    C384   O655      1.04417      .   S
    C158   O656      0.54913      .   S
    C318   O656      0.54913      .   S
    C152   O657      0.54912      .   S
    C312   O657      0.54912      .   S
    C156   O658      0.54912      .   S
    C316   O658      0.54912      .   S
    C154   O659      0.54913      .   S
    C314   O659      0.54913      .   S
    C26    O660      0.55063      .   S
    C218   O660      0.55063      .   S
    C30    O661      0.55063      .   S
    C222   O661      0.55063      .   S
    C28    O662      0.55063      .   S
    C220   O662      0.55063      .   S
    C24    O663      0.55063      .   S
    C216   O663      0.55063      .   S
    C160   O664      0.54843      .   S
    C312   O664      0.54843      .   S
    C162   O665      0.54842      .   S
    C314   O665      0.54842      .   S
    C164   O666      0.54843      .   S
    C316   O666      0.54843      .   S
    C166   O667      0.54842      .   S
    C318   O667      0.54842      .   S
    C216   O668      0.54945      .   S
    C32    O668      0.54945      .   S
    C216   O669      0.77781      .   S
    C256   O669      0.77781      .   S
    C218   O670      0.54948      .   S
    C34    O670      0.54948      .   S
    C218   O671      0.77781      .   S
    C258   O671      0.77781      .   S
    C220   O672      0.54945      .   S
    C36    O672      0.54945      .   S
    C220   O673      0.77782      .   S
    C260   O673      0.77782      .   S
    C222   O674      0.54949      .   S
    C38    O674      0.54949      .   S
    C222   O675      0.77782      .   S
    C262   O675      0.77782      .   S
    C318   O676      0.74323      .   S
    C390   O676      0.74323      .   S
    C318   O677      0.76491  1_565   S
    C340   O677      0.76491      .   S
    C314   O678      0.74323      .   S
    C386   O678      0.74323      .   S
    C314   O679      0.76491  1_565   S
    C336   O679      0.76491      .   S
    C316   O680      0.74323      .   S
    C388   O680      0.74323      .   S
    C316   O681      0.76479      .   S
    C342   O681      0.76479      .   S
    C312   O682      0.74323      .   S
    C384   O682      0.74323      .   S
    C312   O683      0.76479      .   S
    C338   O683      0.76479      .   S
    C450   O684      0.62514      .   S
    C322   O684      0.62514      .   S
    C454   O685      0.62514      .   S
    C326   O685      0.62514      .   S
    C452   O686      0.62514      .   S
    C324   O686      0.62514      .   S
    C448   O687      0.62515      .   S
    C320   O687      0.62515      .   S
    C440   O688      0.64605  1_455   S
    C324   O688      0.64605      .   S
    C446   O689      0.64585      .   S
    C322   O689      0.64585      .   S
    C444   O690      0.64585      .   S
    C320   O690      0.64585      .   S
    C442   O691      0.64605  1_455   S
    C326   O691      0.64605      .   S
    C322   O692      0.77144      .   S
    C331   O692      0.77144      .   S
    C326   O693      0.77144      .   S
    C335   O693      0.77144      .   S
    C320   O694      0.76309      .   S
    C329   O694      0.76309      .   S
    C324   O695      0.76309      .   S
    C333   O695      0.76309      .   S
    C384   O696      0.51451      .   S
    C204   O696      0.51451  1_655   S
    C384   O697      0.51613      .   S
    C192   O697      0.51613      .   S
    C390   O698      0.51432      .   S
    C202   O698      0.51432      .   S
    C390   O699      0.51544      .   S
    C198   O699      0.51544      .   S
    C386   O700      0.51450      .   S
    C206   O700      0.51450  1_655   S
    C386   O701      0.51605      .   S
    C194   O701      0.51605      .   S
    C388   O702      0.51434      .   S
    C200   O702      0.51434      .   S
    C388   O703      0.51613      .   S
    C196   O703      0.51613      .   S
    C82    O704      0.55118      .   S
    C267   O704      0.55118      .   S
    C80    O705      0.55117      .   S
    C265   O705      0.55117      .   S
    C86    O706      0.55118      .   S
    C271   O706      0.55118      .   S
    C84    O707      0.55118      .   S
    C269   O707      0.55118      .   S
    C190   O708      0.54961      .   S
    C342   O708      0.54961      .   S
    C184   O709      0.54923      .   S
    C336   O709      0.54923      .   S
    C188   O710      0.54924      .   S
    C340   O710      0.54924      .   S
    C186   O711      0.54923      .   S
    C338   O711      0.54923      .   S
    C46    O712      0.51733      .   S
    C366   O712      0.51733      .   S
    C44    O713      0.51734      .   S
    C364   O713      0.51734      .   S
    C42    O714      0.51733      .   S
    C362   O714      0.51733      .   S
    C40    O715      0.51734      .   S
    C360   O715      0.51734      .   S
    C460   O716      0.62668      .   S
    C344   O716      0.62668  1_455   S
    C456   O717      0.62652      .   S
    C348   O717      0.62652      .   S
    C458   O718      0.62659      .   S
    C350   O718      0.62659      .   S
    C462   O719      0.62676      .   S
    C346   O719      0.62676  1_455   S
    C338   O720      0.76357      .   S
    C346   O720      0.76357      .   S
    C338   O721      0.55120      .   S
    C179   O721      0.55120      .   S
    C342   O722      0.76357      .   S
    C350   O722      0.76357      .   S
    C342   O723      0.55120      .   S
    C183   O723      0.55120      .   S
    C336   O724      0.76357      .   S
    C344   O724      0.76357      .   S
    C336   O725      0.55120      .   S
    C177   O725      0.55120      .   S
    C340   O726      0.76357      .   S
    C348   O726      0.76357      .   S
    C340   O727      0.55121      .   S
    C181   O727      0.55121      .   S
    C260   O728      0.72454      .   S
    C364   O728      0.72454      .   S
    C260   O729      0.54793      .   S
    C77    O729      0.54793      .   S
    C260   O730      0.77151      .   S
    C253   O730      0.77151      .   S
    C262   O731      0.72455      .   S
    C366   O731      0.72455      .   S
    C262   O732      0.54794      .   S
    C78    O732      0.54794      .   S
    C262   O733      0.76588      .   S
    C255   O733      0.76588      .   S
    C256   O734      0.72454      .   S
    C360   O734      0.72454      .   S
    C256   O735      0.54793      .   S
    C73    O735      0.54793      .   S
    C256   O736      0.77151      .   S
    C249   O736      0.77151      .   S
    C258   O737      0.72455      .   S
    C362   O737      0.72455      .   S
    C258   O738      0.54794      .   S
    C74    O738      0.54794      .   S
    C258   O739      0.76587      .   S
    C251   O739      0.76587      .   S
    C366   O740      0.67484      .   S
    C279   O740      0.67484      .   S
    C360   O741      0.67481      .   S
    C273   O741      0.67481      .   S
    C362   O742      0.67484      .   S
    C275   O742      0.67484      .   S
    C364   O743      0.67480      .   S
    C277   O743      0.67480      .   S
    C346   O744      0.67484      .   S
    C395   O744      0.67484      .   S
    C344   O745      0.67485      .   S
    C393   O745      0.67485      .   S
    C350   O746      0.67483      .   S
    C399   O746      0.67483      .   S
    C348   O747      0.67484      .   S
    C397   O747      0.67484      .   S
    C173   O748      0.54897      .   S
    C333   O748      0.54897      .   S
    C175   O749      0.54794      .   S
    C335   O749      0.54794      .   S
    C168   O750      0.54897      .   S
    C329   O750      0.54897      .   S
    C171   O751      0.54794      .   S
    C331   O751      0.54794      .   S
    C103   O752      0.51606      .   S
    C359   O752      0.51606      .   S
    C101   O753      0.51606      .   S
    C357   O753      0.51606      .   S
    C99    O754      0.51606      .   S
    C355   O754      0.51606      .   S
    C97    O755      0.51605      .   S
    C353   O755      0.51605      .   S
    C279   O756      0.76354      .   S
    C271   O756      0.76354      .   S
    C279   O757      0.62666      .   S
    C439   O757      0.62666      .   S
    C275   O758      0.76354      .   S
    C267   O758      0.76354      .   S
    C275   O759      0.62666      .   S
    C435   O759      0.62666      .   S
    C277   O760      0.76356      .   S
    C269   O760      0.76356      .   S
    C277   O761      0.62673      .   S
    C437   O761      0.62673      .   S
    C273   O762      0.76356      .   S
    C265   O762      0.76356      .   S
    C273   O763      0.62667      .   S
    C433   O763      0.62667      .   S
    C399   O764      0.72455      .   S
    C331   O764      0.72455      .   S
    C399   O765      0.51735      .   S
    C143   O765      0.51735      .   S
    C397   O766      0.72724      .   S
    C329   O766      0.72724      .   S
    C397   O767      0.51734      .   S
    C141   O767      0.51734      .   S
    C395   O768      0.72471  1_455   S
    C335   O768      0.72471      .   S
    C395   O769      0.51734      .   S
    C139   O769      0.51734      .   S
    C329   O770      0.78236      .   S
    C289   O770      0.78236      .   S
    C393   O771      0.72740  1_455   S
    C333   O771      0.72740      .   S
    C393   O772      0.51734      .   S
    C137   O772      0.51734      .   S
    C333   O773      0.78236      .   S
    C293   O773      0.78236      .   S
    C331   O774      0.77781      .   S
    C291   O774      0.77781      .   S
    C335   O775      0.77781      .   S
    C295   O775      0.77781      .   S
    C265   O776      0.54923      .   S
    C89    O776      0.54923      .   S
    C265   O777      0.76477      .   S
    C243   O777      0.76477      .   S
    C269   O778      0.54923      .   S
    C93    O778      0.54923      .   S
    C269   O779      0.76477      .   S
    C247   O779      0.76477      .   S
    C267   O780      0.54924      .   S
    C91    O780      0.54924      .   S
    C267   O781      0.76487      .   S
    C241   O781      0.76487  1_545   S
    C271   O782      0.54924      .   S
    C95    O782      0.54924      .   S
    C271   O783      0.76489      .   S
    C245   O783      0.76489  1_545   S
    C107   O784      0.51439      .   S
    C355   O784      0.51439      .   S
    C111   O785      0.51439      .   S
    C359   O785      0.51439      .   S
    C109   O786      0.51439      .   S
    C357   O786      0.51439      .   S
    C105   O787      0.51440      .   S
    C353   O787      0.51440      .   S
    C359   O788      0.74326      .   S
    C247   O788      0.74326      .   S
    C359   O789      1.04410      .   S
    C7     O789      1.04410      .   S
    C357   O790      0.74326      .   S
    C245   O790      0.74326      .   S
    C357   O791      1.04412      .   S
    C5     O791      1.04412      .   S
    C355   O792      0.74326      .   S
    C243   O792      0.74326      .   S
    C355   O793      1.04410      .   S
    C3     O793      1.04410      .   S
    C353   O794      0.74320      .   S
    C241   O794      0.74320      .   S
    C353   O795      1.04412      .   S
    C1     O795      1.04412      .   S
    C251   O796      0.64794      .   S
    C419   O796      0.64794      .   S
    C251   O797      0.62817      .   S
    C427   O797      0.62817      .   S
    C255   O798      0.64793      .   S
    C423   O798      0.64793      .   S
    C255   O799      0.62817      .   S
    C431   O799      0.62817      .   S
    C253   O800      0.64587      .   S
    C421   O800      0.64587      .   S
    C253   O801      0.62515      .   S
    C429   O801      0.62515      .   S
    C249   O802      0.64587      .   S
    C417   O802      0.64587      .   S
    C249   O803      0.62515      .   S
    C425   O803      0.62515      .   S
    C419   O804      0.99505      .   S
    C3     O804      0.99505      .   S
    C421   O805      0.99515      .   S
    C5     O805      0.99515      .   S
    C417   O806      0.99515      .   S
    C1     O806      0.99515      .   S
    C423   O807      0.99505      .   S
    C7     O807      0.99505      .   S
    C241   O808      0.54841      .   S
    C65    O808      0.54841      .   S
    C241   O809      0.54913      .   S
    C57    O809      0.54913      .   S
    C243   O810      0.54841      .   S
    C67    O810      0.54841      .   S
    C243   O811      0.54913      .   S
    C59    O811      0.54913      .   S
    C245   O812      0.54841      .   S
    C69    O812      0.54841      .   S
    C245   O813      0.54905      .   S
    C61    O813      0.54905      .   S
    C247   O814      0.54841      .   S
    C71    O814      0.54841      .   S
    C247   O815      0.54872      .   S
    C63    O815      0.54872      .   S
    C129   O816      0.54968      .   S
    C289   O816      0.54968      .   S
    C131   O817      0.54949      .   S
    C291   O817      0.54949      .   S
    C133   O818      0.54950      .   S
    C293   O818      0.54950      .   S
    C135   O819      0.54949      .   S
    C295   O819      0.54949      .   S
    C289   O820      0.55065      .   S
    C121   O820      0.55065      .   S
    C289   O821      0.74512      .   S
    C305   O821      0.74512      .   S
    C295   O822      0.55065      .   S
    C127   O822      0.55065      .   S
    C295   O823      0.74512      .   S
    C311   O823      0.74512      .   S
    C293   O824      0.55065      .   S
    C125   O824      0.55065      .   S
    C293   O825      0.74512      .   S
    C309   O825      0.74512      .   S
    C291   O826      0.55065      .   S
    C123   O826      0.55065      .   S
    C291   O827      0.74512      .   S
    C307   O827      0.74512      .   S
    C3     O828      1.00613      .   S
    C411   O828      1.00613      .   S
    C3     O829      0.99629      .   S
    C371   O829      0.99629      .   S
    C7     O830      1.00614      .   S
    C415   O830      1.00614      .   S
    C7     O831      0.99629      .   S
    C375   O831      0.99629      .   S
    C1     O832      1.00611      .   S
    C409   O832      1.00611      .   S
    C1     O833      0.99622      .   S
    C369   O833      0.99622      .   S
    C5     O834      1.00611      .   S
    C413   O834      1.00611      .   S
    C5     O835      0.99622      .   S
    C373   O835      0.99622      .   S
    C311   O836      0.69585      .   S
    C415   O836      0.69585      .   S
    C311   O837      0.68805      .   S
    C303   O837      0.68805      .   S
    C309   O838      0.69586      .   S
    C413   O838      0.69586      .   S
    C309   O839      0.68805      .   S
    C301   O839      0.68805      .   S
    C307   O840      0.69586      .   S
    C411   O840      0.69586      .   S
    C307   O841      0.68805      .   S
    C299   O841      0.68805      .   S
    C305   O842      0.69586      .   S
    C409   O842      0.69586      .   S
    C305   O843      0.68805      .   S
    C297   O843      0.68805      .   S
    C415   O844      0.67633      .   S
    C287   O844      0.67633      .   S
    C413   O845      0.67633      .   S
    C285   O845      0.67633      .   S
    C411   O846      0.67633      .   S
    C283   O846      0.67633      .   S
    C409   O847      0.67633      .   S
    C281   O847      0.67633      .   S
    C17    O848      0.54226      .   S
    C209   O848      0.54226      .   S
    C21    O849      0.54226      .   S
    C213   O849      0.54226      .   S
    C19    O850      0.54163      .   S
    C211   O850      0.54163      .   S
    C23    O851      0.54163      .   S
    C215   O851      0.54163      .   S
    C299   O852      0.54190      .   S
    C151   O852      0.54190      .   S
    C299   O853      0.69253      .   S
    C403   O853      0.69253      .   S
    C297   O854      0.54187      .   S
    C149   O854      0.54187      .   S
    C297   O855      0.69253      .   S
    C401   O855      0.69253      .   S
    C301   O856      0.54204  1_655   S
    C145   O856      0.54204      .   S
    C301   O857      0.69253      .   S
    C405   O857      0.69253      .   S
    C303   O858      0.54212  1_655   S
    C147   O858      0.54212      .   S
    C303   O859      0.69253      .   S
    C407   O859      0.69253      .   S
    C375   O860      0.67404      .   S
    C215   O860      0.67404      .   S
    C375   O861      0.69255      .   S
    C231   O861      0.69255      .   S
    C373   O862      0.67404      .   S
    C213   O862      0.67404      .   S
    C373   O863      0.69255      .   S
    C229   O863      0.69255      .   S
    C371   O864      0.67404      .   S
    C211   O864      0.67404      .   S
    C371   O865      0.69254      .   S
    C227   O865      0.69254      .   S
    C369   O866      0.67404      .   S
    C209   O866      0.67404      .   S
    C369   O867      0.69255      .   S
    C225   O867      0.69255      .   S
    C213   O868      0.67629      .   S
    C381   O868      0.67629      .   S
    C209   O869      0.67629      .   S
    C377   O869      0.67629      .   S
    C211   O870      0.67629      .   S
    C379   O870      0.67629      .   S
    C215   O871      0.67629      .   S
    C383   O871      0.67629      .   S
    C285   O872      0.67407      .   S
    C405   O872      0.67407      .   S
    C285   O873      0.54159      .   S
    C117   O873      0.54159      .   S
    C283   O874      0.67407      .   S
    C403   O874      0.67407      .   S
    C283   O875      0.54159      .   S
    C115   O875      0.54159      .   S
    C281   O876      0.67407      .   S
    C401   O876      0.67407      .   S
    C281   O877      0.54159      .   S
    C113   O877      0.54159      .   S
    C287   O878      0.67407      .   S
    C407   O878      0.67407      .   S
    C287   O879      0.54159      .   S
    C119   O879      0.54159      .   S
    C53    O880      0.54186      .   S
    C229   O880      0.54186      .   S
    C49    O881      0.54186      .   S
    C225   O881      0.54186      .   S
    C51    O882      0.54188      .   S
    C227   O882      0.54188      .   S
    C55    O883      0.54187      .   S
    C231   O883      0.54187      .   S
    C401   O884      0.99614      .   S
    C13    O884      0.99614      .   S
    C405   O885      0.99626  1_655   S
    C9     O885      0.99626      .   S
    C407   O886      0.99627  1_655   S
    C11    O886      0.99627      .   S
    C403   O887      0.99614      .   S
    C15    O887      0.99614      .   S
    C225   O888      0.68809      .   S
    C233   O888      0.68809      .   S
    C227   O889      0.68809      .   S
    C235   O889      0.68809      .   S
    C229   O890      0.68809      .   S
    C237   O890      0.68809      .   S
    C231   O891      0.68809      .   S
    C239   O891      0.68809      .   S
    C383   O892      0.69595      .   S
    C239   O892      0.69595      .   S
    C383   O893      1.00626      .   S
    C15    O893      1.00626      .   S
    C381   O894      0.69594      .   S
    C237   O894      0.69594      .   S
    C381   O895      1.00626      .   S
    C13    O895      1.00626      .   S
    C379   O896      0.69595      .   S
    C235   O896      0.69595      .   S
    C379   O897      1.00626      .   S
    C11    O897      1.00626      .   S
    C377   O898      0.69595      .   S
    C233   O898      0.69595      .   S
    C377   O899      1.00626      .   S
    C9     O899      1.00626      .   S
    C233   O900      0.74520      .   S
    C217   O900      0.74520      .   S
    C239   O901      0.74423      .   S
    C223   O901      0.74423      .   S
    C237   O902      0.74520      .   S
    C221   O902      0.74520      .   S
    C235   O903      0.74424      .   S
    C219   O903      0.74424      .   S
    C9     O904      0.99479      .   S
    C441   O904      0.99479      .   S
    C9     O905      1.04417      .   S
    C385   O905      1.04417      .   S
    C11    O906      0.99479      .   S
    C443   O906      0.99479      .   S
    C11    O907      1.04417      .   S
    C387   O907      1.04417      .   S
    C13    O908      0.99479      .   S
    C445   O908      0.99479      .   S
    C13    O909      1.04417      .   S
    C389   O909      1.04417      .   S
    C15    O910      0.99480      .   S
    C447   O910      0.99480      .   S
    C15    O911      1.04416      .   S
    C391   O911      1.04416      .   S
    C159   O912      0.54912      .   S
    C319   O912      0.54912      .   S
    C157   O913      0.54912      .   S
    C317   O913      0.54912      .   S
    C155   O914      0.54912      .   S
    C315   O914      0.54912      .   S
    C153   O915      0.54913      .   S
    C313   O915      0.54913      .   S
    C27    O916      0.55070      .   S
    C219   O916      0.55070      .   S
    C31    O917      0.55071      .   S
    C223   O917      0.55071      .   S
    C29    O918      0.55063      .   S
    C221   O918      0.55063      .   S
    C25    O919      0.55063      .   S
    C217   O919      0.55063      .   S
    C163   O920      0.54842      .   S
    C315   O920      0.54842      .   S
    C167   O921      0.54842      .   S
    C319   O921      0.54842      .   S
    C165   O922      0.54843      .   S
    C317   O922      0.54843      .   S
    C161   O923      0.54842      .   S
    C313   O923      0.54842      .   S
    C219   O924      0.54975      .   S
    C35    O924      0.54975      .   S
    C219   O925      0.77833      .   S
    C259   O925      0.77833      .   S
    C223   O926      0.54975      .   S
    C39    O926      0.54975      .   S
    C223   O927      0.77832      .   S
    C263   O927      0.77832      .   S
    C217   O928      0.54949      .   S
    C33    O928      0.54949      .   S
    C217   O929      0.77782      .   S
    C257   O929      0.77782      .   S
    C221   O930      0.54948      .   S
    C37    O930      0.54948      .   S
    C221   O931      0.77782      .   S
    C261   O931      0.77782      .   S
    C313   O932      0.74322      .   S
    C385   O932      0.74322      .   S
    C313   O933      0.76479      .   S
    C339   O933      0.76479      .   S
    C315   O934      0.74324      .   S
    C387   O934      0.74324      .   S
    C315   O935      0.76491  1_565   S
    C337   O935      0.76491      .   S
    C317   O936      0.74323      .   S
    C389   O936      0.74323      .   S
    C317   O937      0.76479      .   S
    C343   O937      0.76479      .   S
    C319   O938      0.74324      .   S
    C391   O938      0.74324      .   S
    C319   O939      0.76491  1_565   S
    C341   O939      0.76491      .   S
    C455   O940      0.62519      .   S
    C327   O940      0.62519      .   S
    C451   O941      0.62519      .   S
    C323   O941      0.62519      .   S
    C453   O942      0.62514      .   S
    C325   O942      0.62514      .   S
    C449   O943      0.62514      .   S
    C321   O943      0.62514      .   S
    C441   O944      0.64605  1_455   S
    C325   O944      0.64605      .   S
    C443   O945      0.64604  1_455   S
    C327   O945      0.64604      .   S
    C445   O946      0.64586      .   S
    C321   O946      0.64586      .   S
    C447   O947      0.64585      .   S
    C323   O947      0.64585      .   S
    C391   O948      0.51432      .   S
    C203   O948      0.51432      .   S
    C391   O949      0.51544      .   S
    C199   O949      0.51544      .   S
    C385   O950      0.51430      .   S
    C205   O950      0.51430  1_655   S
    C385   O951      0.51545      .   S
    C193   O951      0.51545      .   S
    C387   O952      0.51451      .   S
    C207   O952      0.51451  1_655   S
    C387   O953      0.51612      .   S
    C195   O953      0.51612      .   S
    C389   O954      0.51413      .   S
    C201   O954      0.51413      .   S
    C389   O955      0.51545      .   S
    C197   O955      0.51545      .   S
    C191   O956      0.54923      .   S
    C343   O956      0.54923      .   S
    C187   O957      0.54923      .   S
    C339   O957      0.54923      .   S
    C189   O958      0.54919      .   S
    C341   O958      0.54919      .   S
    C185   O959      0.54919      .   S
    C337   O959      0.54919      .   S
    C47    O960      0.51734      .   S
    C367   O960      0.51734      .   S
    C45    O961      0.51734      .   S
    C365   O961      0.51734      .   S
    C43    O962      0.51733      .   S
    C363   O962      0.51733      .   S
    C41    O963      0.51733      .   S
    C361   O963      0.51733      .   S
    C463   O964      0.62674      .   S
    C347   O964      0.62674  1_455   S
    C459   O965      0.62657      .   S
    C351   O965      0.62657      .   S
    C461   O966      0.62676      .   S
    C345   O966      0.62676  1_455   S
    C457   O967      0.62658      .   S
    C349   O967      0.62658      .   S
    C337   O968      0.76357      .   S
    C345   O968      0.76357      .   S
    C339   O969      0.76357      .   S
    C347   O969      0.76357      .   S
    C341   O970      0.76357      .   S
    C349   O970      0.76357      .   S
    C343   O971      0.76357      .   S
    C351   O971      0.76357      .   S
    C263   O972      0.72455      .   S
    C367   O972      0.72455      .   S
    C261   O973      0.72454      .   S
    C365   O973      0.72454      .   S
    C259   O974      0.72455      .   S
    C363   O974      0.72455      .   S
    C257   O975      0.72454      .   S
    C361   O975      0.72454      .   S
