# CIF file generated by openbabel 2.4.90, see http://openbabel.sf.net
data_I
_chemical_name_common ''
_cell_length_a 16.152
_cell_length_b 16.386
_cell_length_c 17.297
_cell_angle_alpha 89.875
_cell_angle_beta 103.749
_cell_angle_gamma 90.013
_space_group_name_H-M_alt 'P 1'
_space_group_name_Hall 'P 1'
loop_
    _symmetry_equiv_pos_as_xyz
    x,y,z
loop_
    _atom_site_label
    _atom_site_type_symbol
    _atom_site_fract_x
    _atom_site_fract_y
    _atom_site_fract_z
    _atom_site_occupancy
    N0      N    0.56246   0.10484   0.08549   1.000
    N1      N    0.84864   0.29457   0.55780   1.000
    N2      N    0.06288   0.39507   0.08496   1.000
    N3      N    0.74812   0.24311   0.00930   1.000
    N4      N    0.93646   0.60452   0.91348   1.000
    N5      N    0.49948   0.50001   0.49905   1.000
    N6      N    0.43682   0.89418   0.91364   1.000
    N7      N    0.22763   0.23265   0.99334   1.000
    N8      N    0.75163   0.74299   0.98957   1.000
    N9      N    0.35020   0.20566   0.55850   1.000
    N10     N    0.64974   0.79432   0.43985   1.000
    N11     N    0.25086   0.75707   0.98931   1.000
    N12     N    0.98889   0.98905   0.50438   1.000
    N13     N    0.15017   0.70546   0.43995   1.000
    Zr14    Zr   0.49989   0.00001   0.49954   1.000
    O15     O    0.47663   0.02851   0.37286   1.000
    O16     O    0.65496   0.12048   0.52676   1.000
    O17     O    0.55478   0.92376   0.46670   1.000
    O18     O    0.34451   0.87955   0.47181   1.000
    O19     O    0.44508   0.07624   0.53217   1.000
    O20     O    0.52307   0.97124   0.62634   1.000
    Zr21    Zr   0.99982   0.50002   0.49843   1.000
    O22     O    0.97664   0.47153   0.37161   1.000
    O23     O    0.94438   0.42390   0.53112   1.000
    O24     O    0.02293   0.52838   0.62570   1.000
    O25     O    0.84425   0.62036   0.47095   1.000
    O26     O    0.05500   0.57614   0.46605   1.000
    O27     O    0.15552   0.37966   0.52644   1.000
    Zr28    Zr   0.98156   0.98137   0.00825   1.000
    O29     O    0.06899   0.06276   0.96576   1.000
    O30     O    0.88750   0.08807   0.01864   1.000
    O31     O    0.88979   0.88593   0.00919   1.000
    O32     O    0.98736   0.99014   0.22381   1.000
    O33     O    0.09344   0.89335   0.98896   1.000
    O34     O    0.98849   0.98565   0.78620   1.000
    Zr35    Zr   0.49971   0.49989   0.99909   1.000
    O36     O    0.60073   0.39525   0.99384   1.000
    O37     O    0.50034   0.50233   0.78029   1.000
    O38     O    0.60300   0.59727   0.98454   1.000
    O39     O    0.39853   0.60475   0.00450   1.000
    O40     O    0.39153   0.39639   0.00979   1.000
    O41     O    0.49885   0.49750   0.21787   1.000
    O42     O    0.10332   0.96268   0.00952   1.000
    O43     O    0.87783   0.01885   0.99818   1.000
    O44     O    0.38721   0.47216   0.99345   1.000
    O45     O    0.61222   0.52764   0.00490   1.000
loop_
    _geom_bond_atom_site_label_1
    _geom_bond_atom_site_label_2
    _geom_bond_distance
    _geom_bond_site_symmetry_2
    _ccdc_geom_bond_type
    Zr14   O15       2.18282      .   S
    N0     O15       5.60722      .   S
    Zr14   O16       3.13573      .   S
    N1     O16       4.17329      .   S
    Zr14   O17       1.70664  1_545   S
    N10    O17       2.72224      .   S
    Zr14   O18       3.13924  1_545   S
    N13    O18       4.18025      .   S
    Zr14   O19       1.70411      .   S
    N9     O19       2.71857      .   S
    Zr14   O20       2.18598  1_545   S
    N6     O20       5.61178      .   S
    Zr21   O22       2.18734      .   S
    N2     O22       5.60385  1_455   S
    Zr21   O23       1.70709      .   S
    N1     O23       2.72562      .   S
    Zr21   O24       2.19433  1_655   S
    N4     O24       5.62284  1_655   S
    Zr21   O25       3.13984      .   S
    N10    O25       4.18089      .   S
    Zr21   O26       1.70228  1_655   S
    N13    O26       2.71687      .   S
    Zr21   O27       3.14136  1_655   S
    N9     O27       4.18239      .   S
    Zr28   O29       2.19132  1_664   S
    N7     O29       3.73689      .   S
    Zr28   O30       2.35146  1_565   S
    N3     O30       3.37281      .   S
    Zr28   O31       2.15723      .   S
    N8     O31       3.19704  1_556   S
    Zr28   O32       3.71048      .   S
    N12    O32       4.84714      .   S
    Zr28   O33       2.39741  1_654   S
    N11    O33       3.38329      .   S
    Zr28   O34       3.86942  1_554   S
    N12    O34       4.87644      .   S
    Zr35   O36       2.38398      .   S
    N3     O36       3.41341  1_554   S
    Zr35   O37       3.78727      .   S
    N5     O37       4.86145      .   S
    Zr35   O38       2.36422      .   S
    N8     O38       3.37223      .   S
    Zr35   O39       2.38877  1_556   S
    N11    O39       3.41900  1_556   S
    Zr35   O40       2.47268  1_556   S
    N7     O40       3.73225  1_556   S
    Zr35   O41       3.78761  1_556   S
    N5     O41       4.86146      .   S
    Zr28   O42       1.98539  1_655   S
    N6     O42       6.10619  1_556   S
    Zr28   O43       1.75370  1_564   S
    N0     O43       5.82100  1_554   S
    N2     O44       5.95603  1_554   S
    Zr35   O44       1.85283      .   S
    Zr35   O45       1.85267  1_556   S
    N4     O45       5.95319  1_556   S
