# CIF file generated by openbabel 2.4.90, see http://openbabel.sf.net
data_I
_chemical_name_common ''
_cell_length_a 16.152
_cell_length_b 16.386
_cell_length_c 17.297
_cell_angle_alpha 89.875
_cell_angle_beta 103.749
_cell_angle_gamma 90.013
_space_group_name_H-M_alt 'P 1'
_space_group_name_Hall 'P 1'
loop_
    _symmetry_equiv_pos_as_xyz
    x,y,z
loop_
    _atom_site_label
    _atom_site_type_symbol
    _atom_site_fract_x
    _atom_site_fract_y
    _atom_site_fract_z
    _atom_site_occupancy
    C0      C    0.63525   0.04147   0.55990   1.000
    C1      C    0.94858   0.98950   0.17434   1.000
    C2      C    0.86458   0.54171   0.43691   1.000
    C3      C    0.55096   0.48970   0.82359   1.000
    C4      C    0.36481   0.95850   0.43964   1.000
    C5      C    0.04937   0.01042   0.82330   1.000
    C6      C    0.13513   0.45837   0.55988   1.000
    C7      C    0.44806   0.51019   0.17398   1.000
    C8      C    0.00001   0.00028   0.99967   1.000
    C9      C    0.49996   0.50005   0.99957   1.000
    C10     C    0.80448   0.96886   0.64195   1.000
    C11     C    0.85456   0.83649   0.70742   1.000
    C12     C    0.74538   0.72861   0.71736   1.000
    C13     C    0.55035   0.90406   0.61242   1.000
    C14     C    0.46527   0.70267   0.64773   1.000
    C15     C    0.47110   0.79977   0.60195   1.000
    C16     C    0.41587   0.91251   0.66607   1.000
    C17     C    0.38239   0.97504   0.78459   1.000
    C18     C    0.48878   0.76521   0.92478   1.000
    C19     C    0.52403   0.70430   0.80654   1.000
    C20     C    0.30243   0.98027   0.86995   1.000
    C21     C    0.27032   0.04394   0.98662   1.000
    C22     C    0.48047   0.91573   0.13854   1.000
    C23     C    0.51644   0.85540   0.02069   1.000
    C24     C    0.33168   0.08644   0.13100   1.000
    C25     C    0.40735   0.00000   0.19464   1.000
    C26     C    0.18913   0.05444   0.09715   1.000
    C27     C    0.09800   0.87645   0.24138   1.000
    C28     C    0.24989   0.83272   0.29416   1.000
    C29     C    0.36644   0.90425   0.24806   1.000
    C30     C    0.91435   0.15617   0.56437   1.000
    C31     C    0.00000   0.28124   0.57923   1.000
    C32     C    0.78319   0.43290   0.54837   1.000
    C33     C    0.69246   0.30769   0.53842   1.000
    C34     C    0.66771   0.30269   0.10155   1.000
    C35     C    0.72017   0.29319   0.86971   1.000
    C36     C    0.82752   0.18216   0.91700   1.000
    C37     C    0.77660   0.19355   0.14897   1.000
    C38     C    0.90001   0.91380   0.40061   1.000
    C39     C    0.09694   0.09491   0.45200   1.000
    C40     C    0.69513   0.46921   0.35593   1.000
    C41     C    0.64490   0.33663   0.29174   1.000
    C42     C    0.75395   0.22841   0.28260   1.000
    C43     C    0.94921   0.40404   0.38540   1.000
    C44     C    0.03412   0.20220   0.35183   1.000
    C45     C    0.02840   0.29921   0.39740   1.000
    C46     C    0.08379   0.41198   0.33306   1.000
    C47     C    0.11731   0.47467   0.21443   1.000
    C48     C    0.01052   0.26528   0.07468   1.000
    C49     C    0.97517   0.20423   0.19303   1.000
    C50     C    0.19681   0.48054   0.12894   1.000
    C51     C    0.22913   0.54407   0.00000   1.000
    C52     C    0.01978   0.41505   0.86049   1.000
    C53     C    0.98353   0.35499   0.97853   1.000
    C54     C    0.16819   0.58599   0.86645   1.000
    C55     C    0.09263   0.52179   0.80395   1.000
    C56     C    0.31084   0.55404   0.90141   1.000
    C57     C    0.40220   0.37655   0.75758   1.000
    C58     C    0.25042   0.33260   0.70502   1.000
    C59     C    0.13375   0.40370   0.75110   1.000
    C60     C    0.58504   0.65589   0.43511   1.000
    C61     C    0.49266   0.78089   0.42026   1.000
    C62     C    0.71560   0.93266   0.44779   1.000
    C63     C    0.80630   0.80755   0.45720   1.000
    C64     C    0.83183   0.80286   0.89707   1.000
    C65     C    0.77970   0.79276   0.12907   1.000
    C66     C    0.67236   0.68188   0.08204   1.000
    C67     C    0.72307   0.69369   0.85004   1.000
    C68     C    0.60019   0.41504   0.59803   1.000
    C69     C    0.40226   0.59530   0.54588   1.000
    C70     C    0.19535   0.03069   0.35735   1.000
    C71     C    0.14499   0.16277   0.29146   1.000
    C72     C    0.25391   0.27100   0.28160   1.000
    C73     C    0.44934   0.09620   0.38729   1.000
    C74     C    0.53402   0.29765   0.35161   1.000
    C75     C    0.52846   0.20072   0.39775   1.000
    C76     C    0.58391   0.08793   0.33390   1.000
    C77     C    0.61746   0.02511   0.21560   1.000
    C78     C    0.50999   0.23413   0.07469   1.000
    C79     C    0.47467   0.29533   0.19270   1.000
    C80     C    0.69712   0.01961   0.13010   1.000
    C81     C    0.72946   0.95587   0.00000   1.000
    C82     C    0.51918   0.08374   0.86139   1.000
    C83     C    0.48296   0.14403   0.97910   1.000
    C84     C    0.66898   0.91357   0.86846   1.000
    C85     C    0.59231   0.97672   0.80559   1.000
    C86     C    0.81114   0.94713   0.90249   1.000
    C87     C    0.89940   0.12532   0.75659   1.000
    C88     C    0.74698   0.16752   0.70424   1.000
    C89     C    0.63158   0.09518   0.75137   1.000
    C90     C    0.08513   0.84381   0.43420   1.000
    C91     C    0.99287   0.71871   0.41850   1.000
    C92     C    0.21631   0.56717   0.44872   1.000
    C93     C    0.30700   0.69244   0.45924   1.000
    C94     C    0.33038   0.69710   0.89653   1.000
    C95     C    0.28002   0.70762   0.12917   1.000
    C96     C    0.17248   0.81848   0.08212   1.000
    C97     C    0.22105   0.80591   0.84935   1.000
    C98     C    0.09938   0.08550   0.59767   1.000
    C99     C    0.90246   0.90433   0.54627   1.000
    C100    C    0.30441   0.53049   0.64128   1.000
    C101    C    0.35492   0.66234   0.70702   1.000
    C102    C    0.24608   0.77037   0.71725   1.000
    C103    C    0.05049   0.59586   0.61217   1.000
    C104    C    0.96600   0.79737   0.64761   1.000
    C105    C    0.97161   0.70052   0.60167   1.000
    C106    C    0.91592   0.58740   0.66583   1.000
    C107    C    0.88228   0.52456   0.78439   1.000
    C108    C    0.98915   0.73373   0.92441   1.000
    C109    C    0.02457   0.79495   0.80619   1.000
    C110    C    0.80258   0.51888   0.87013   1.000
    C111    C    0.77022   0.45561   0.98724   1.000
    C112    C    0.98017   0.58407   0.13845   1.000
    C113    C    0.00000   0.64387   0.02030   1.000
    C114    C    0.83129   0.41373   0.13289   1.000
    C115    C    0.90688   0.47804   0.19523   1.000
    C116    C    0.68876   0.44551   0.09795   1.000
    C117    C    0.59727   0.62432   0.24041   1.000
    C118    C    0.74906   0.66852   0.29263   1.000
    C119    C    0.86576   0.59689   0.24709   1.000
    C120    C    0.41493   0.34404   0.56277   1.000
    C121    C    0.50733   0.21903   0.57846   1.000
    C122    C    0.28433   0.06735   0.55112   1.000
    C123    C    0.19358   0.19251   0.54075   1.000
    C124    C    0.16717   0.19755   0.10037   1.000
    C125    C    0.22205   0.20524   0.86942   1.000
    C126    C    0.32897   0.31656   0.91635   1.000
    C127    C    0.27592   0.30670   0.14752   1.000
    C128    C    0.39867   0.58486   0.40000   1.000
    C129    C    0.59689   0.40494   0.45220   1.000
    C130    C    0.75959   0.92247   0.65093   1.000
    C131    C    0.78656   0.84745   0.68614   1.000
    C132    C    0.72660   0.78884   0.69242   1.000
    C133    C    0.63938   0.80701   0.66527   1.000
    C134    C    0.61638   0.88466   0.63346   1.000
    C135    C    0.49353   0.76389   0.65675   1.000
    C136    C    0.47294   0.80422   0.72813   1.000
    C137    C    0.43230   0.88025   0.72296   1.000
    C138    C    0.41294   0.91527   0.79009   1.000
    C139    C    0.43346   0.87568   0.86453   1.000
    C140    C    0.47418   0.79910   0.86880   1.000
    C141    C    0.49349   0.76404   0.80203   1.000
    C142    C    0.41244   0.91265   0.93560   1.000
    C143    C    0.34323   0.96662   0.92835   1.000
    C144    C    0.32391   0.00000   0.99501   1.000
    C145    C    0.37219   0.98369   0.07168   1.000
    C146    C    0.44084   0.92961   0.07954   1.000
    C147    C    0.46089   0.89505   0.01276   1.000
    C148    C    0.35180   0.00000   0.14384   1.000
    C149    C    0.19986   0.00000   0.14007   1.000
    C150    C    0.13008   0.96781   0.16246   1.000
    C151    C    0.14955   0.90527   0.22046   1.000
    C152    C    0.23376   0.88123   0.25006   1.000
    C153    C    0.29960   0.91915   0.22488   1.000
    C154    C    0.74470   0.14989   0.54913   1.000
    C155    C    0.79810   0.22479   0.55119   1.000
    C156    C    0.88665   0.21700   0.56185   1.000
    C157    C    0.93765   0.28632   0.56993   1.000
    C158    C    0.90077   0.36445   0.56550   1.000
    C159    C    0.95776   0.43749   0.57408   1.000
    C160    C    0.81196   0.37234   0.55266   1.000
    C161    C    0.76122   0.30280   0.54649   1.000
    C162    C    0.62325   0.37134   0.95317   1.000
    C163    C    0.70393   0.27718   0.06165   1.000
    C164    C    0.68755   0.30489   0.98260   1.000
    C165    C    0.73301   0.27081   0.93074   1.000
    C166    C    0.79252   0.20945   0.95702   1.000
    C167    C    0.80817   0.18107   0.03572   1.000
    C168    C    0.76405   0.21608   0.08805   1.000
    C169    C    0.86933   0.11176   0.06180   1.000
    C170    C    0.99673   0.01233   0.33103   1.000
    C171    C    0.99815   0.00519   0.41770   1.000
    C172    C    0.94349   0.95101   0.44437   1.000
    C173    C    0.05435   0.05363   0.47334   1.000
    C174    C    0.73999   0.42272   0.34719   1.000
    C175    C    0.71293   0.34754   0.31276   1.000
    C176    C    0.77282   0.28875   0.30695   1.000
    C177    C    0.86007   0.30685   0.33380   1.000
    C178    C    0.88317   0.38469   0.36473   1.000
    C179    C    0.00588   0.26346   0.34273   1.000
    C180    C    0.02645   0.30392   0.27123   1.000
    C181    C    0.06724   0.37985   0.27624   1.000
    C182    C    0.08665   0.41497   0.20903   1.000
    C183    C    0.06604   0.37557   0.13467   1.000
    C184    C    0.02518   0.29907   0.13051   1.000
    C185    C    0.00581   0.26392   0.19740   1.000
    C186    C    0.08715   0.41258   0.06349   1.000
    C187    C    0.15622   0.46670   0.07050   1.000
    C188    C    0.17569   0.50183   0.00000   1.000
    C189    C    0.12773   0.48334   0.92711   1.000
    C190    C    0.05919   0.42915   0.91945   1.000
    C191    C    0.03897   0.39475   0.98636   1.000
    C192    C    0.14817   0.52231   0.85470   1.000
    C193    C    0.30013   0.50455   0.85861   1.000
    C194    C    0.37001   0.46769   0.83632   1.000
    C195    C    0.35063   0.40523   0.77847   1.000
    C196    C    0.26647   0.38105   0.74900   1.000
    C197    C    0.20055   0.41875   0.77412   1.000
    C198    C    0.75431   0.64963   0.44797   1.000
    C199    C    0.70097   0.72455   0.44622   1.000
    C200    C    0.61258   0.71674   0.43680   1.000
    C201    C    0.56150   0.78603   0.42875   1.000
    C202    C    0.59817   0.86420   0.43220   1.000
    C203    C    0.54106   0.93720   0.42356   1.000
    C204    C    0.68689   0.87211   0.44411   1.000
    C205    C    0.73766   0.80260   0.45003   1.000
    C206    C    0.87656   0.87118   0.04530   1.000
    C207    C    0.79574   0.77719   0.93711   1.000
    C208    C    0.81224   0.80476   0.01609   1.000
    C209    C    0.76684   0.77054   0.06808   1.000
    C210    C    0.70731   0.70923   0.04198   1.000
    C211    C    0.69159   0.68094   0.96336   1.000
    C212    C    0.73565   0.71609   0.91091   1.000
    C213    C    0.63031   0.61167   0.93747   1.000
    C214    C    0.50340   0.51307   0.66729   1.000
    C215    C    0.50151   0.50598   0.58052   1.000
    C216    C    0.55626   0.45188   0.55410   1.000
    C217    C    0.44483   0.55399   0.52471   1.000
    C218    C    0.24014   0.07718   0.34837   1.000
    C219    C    0.21301   0.15208   0.31297   1.000
    C220    C    0.27283   0.21086   0.30678   1.000
    C221    C    0.36008   0.19298   0.33424   1.000
    C222    C    0.38326   0.11539   0.36613   1.000
    C223    C    0.50582   0.23639   0.34285   1.000
    C224    C    0.52634   0.19585   0.27153   1.000
    C225    C    0.56728   0.11996   0.27694   1.000
    C226    C    0.58668   0.08478   0.20990   1.000
    C227    C    0.56591   0.12407   0.13531   1.000
    C228    C    0.52484   0.20049   0.13074   1.000
    C229    C    0.50548   0.23570   0.19747   1.000
    C230    C    0.58703   0.08700   0.06432   1.000
    C231    C    0.65633   0.03313   0.07167   1.000
    C232    C    0.67579   0.99787   0.00000   1.000
    C233    C    0.62754   0.01598   0.92835   1.000
    C234    C    0.55878   0.06994   0.92041   1.000
    C235    C    0.53860   0.10448   0.98710   1.000
    C236    C    0.64805   0.97696   0.85621   1.000
    C237    C    0.79959   0.99647   0.85932   1.000
    C238    C    0.86878   0.03413   0.83646   1.000
    C239    C    0.84835   0.09617   0.77800   1.000
    C240    C    0.76383   0.11934   0.74861   1.000
    C241    C    0.69861   0.08095   0.77436   1.000
    C242    C    0.25479   0.85019   0.44948   1.000
    C243    C    0.20135   0.77525   0.44694   1.000
    C244    C    0.11281   0.78300   0.43630   1.000
    C245    C    0.06181   0.71366   0.42782   1.000
    C246    C    0.09870   0.63556   0.43186   1.000
    C247    C    0.04170   0.56253   0.42286   1.000
    C248    C    0.18751   0.62770   0.44471   1.000
    C249    C    0.23824   0.69727   0.45122   1.000
    C250    C    0.37609   0.62896   0.04517   1.000
    C251    C    0.29454   0.72277   0.93669   1.000
    C252    C    0.31164   0.69536   0.01586   1.000
    C253    C    0.26669   0.72971   0.06800   1.000
    C254    C    0.20702   0.79099   0.04190   1.000
    C255    C    0.19058   0.81901   0.96303   1.000
    C256    C    0.23419   0.78372   0.91042   1.000
    C257    C    0.12902   0.88814   0.93705   1.000
    C258    C    0.00269   0.98750   0.66730   1.000
    C259    C    0.00121   0.99414   0.58055   1.000
    C260    C    0.05591   0.04827   0.55390   1.000
    C261    C    0.94507   0.94563   0.52499   1.000
    C262    C    0.25968   0.57689   0.65046   1.000
    C263    C    0.28688   0.65166   0.68578   1.000
    C264    C    0.22709   0.71033   0.69220   1.000
    C265    C    0.13981   0.69250   0.66500   1.000
    C266    C    0.11657   0.61504   0.63319   1.000
    C267    C    0.99408   0.73603   0.65654   1.000
    C268    C    0.97328   0.69537   0.72784   1.000
    C269    C    0.93246   0.61944   0.72270   1.000
    C270    C    0.91299   0.58424   0.78986   1.000
    C271    C    0.93359   0.62356   0.86427   1.000
    C272    C    0.97447   0.70005   0.86853   1.000
    C273    C    0.99388   0.73528   0.80170   1.000
    C274    C    0.91250   0.58656   0.93546   1.000
    C275    C    0.84330   0.53263   0.92848   1.000
    C276    C    0.82382   0.49764   0.99534   1.000
    C277    C    0.87195   0.51607   0.07193   1.000
    C278    C    0.94065   0.57003   0.07951   1.000
    C279    C    0.96086   0.60430   0.01255   1.000
    C280    C    0.85140   0.47741   0.14437   1.000
    C281    C    0.69945   0.49533   0.14041   1.000
    C282    C    0.62959   0.53252   0.16240   1.000
    C283    C    0.64889   0.59539   0.21978   1.000
    C284    C    0.73303   0.61972   0.24906   1.000
    C285    C    0.79896   0.58171   0.22421   1.000
    C286    C    0.24554   0.35042   0.54919   1.000
    C287    C    0.29895   0.27545   0.55157   1.000
    C288    C    0.38738   0.28322   0.56120   1.000
    C289    C    0.43847   0.21392   0.56980   1.000
    C290    C    0.40178   0.13578   0.56663   1.000
    C291    C    0.45890   0.06280   0.57561   1.000
    C292    C    0.31304   0.12789   0.55456   1.000
    C293    C    0.26225   0.19742   0.54810   1.000
    C294    C    0.12394   0.12793   0.95287   1.000
    C295    C    0.20388   0.22270   0.06061   1.000
    C296    C    0.18823   0.19442   0.98192   1.000
    C297    C    0.23429   0.22803   0.93019   1.000
    C298    C    0.29361   0.28954   0.95625   1.000
    C299    C    0.30857   0.31844   0.03463   1.000
    C300    C    0.26389   0.28382   0.08685   1.000
    C301    C    0.36958   0.38783   0.06060   1.000
    C302    C    0.49562   0.48648   0.33087   1.000
    C303    C    0.49736   0.49394   0.41761   1.000
    C304    C    0.44264   0.54807   0.44403   1.000
    C305    C    0.55420   0.44610   0.47346   1.000
    C306    C    0.67607   0.94005   0.62541   1.000
    C307    C    0.28093   0.98076   0.17089   1.000
    C308    C    0.82354   0.44028   0.37230   1.000
    C309    C    0.21911   0.48032   0.82792   1.000
    C310    C    0.32370   0.05984   0.37409   1.000
    C311    C    0.71820   0.01968   0.82866   1.000
    C312    C    0.17610   0.55958   0.62505   1.000
    C313    C    0.78045   0.51970   0.17091   1.000
    C314    C    0.77754   0.07973   0.55321   1.000
    C315    C    0.66446   0.15973   0.54721   1.000
    C316    C    0.03547   0.42725   0.61041   1.000
    C317    C    0.92805   0.50710   0.54644   1.000
    C318    C    0.90273   0.08012   0.00980   1.000
    C319    C    0.88206   0.08943   0.13485   1.000
    C320    C    0.61837   0.39621   0.88217   1.000
    C321    C    0.58098   0.39799   0.00106   1.000
    C322    C    0.03796   0.06726   0.30627   1.000
    C323    C    0.95053   0.95871   0.28420   1.000
    C324    C    0.05236   0.99269   0.12890   1.000
    C325    C    0.58432   0.74607   0.67030   1.000
    C326    C    0.72218   0.57944   0.44675   1.000
    C327    C    0.83378   0.65969   0.44671   1.000
    C328    C    0.46330   0.92704   0.38742   1.000
    C329    C    0.57068   0.00680   0.45094   1.000
    C330    C    0.59684   0.58029   0.98978   1.000
    C331    C    0.61760   0.58931   0.86460   1.000
    C332    C    0.88159   0.89589   0.11630   1.000
    C333    C    0.91873   0.89800   0.99729   1.000
    C334    C    0.46268   0.56807   0.69244   1.000
    C335    C    0.54950   0.45907   0.71390   1.000
    C336    C    0.44765   0.49268   0.86970   1.000
    C337    C    0.91507   0.24573   0.32941   1.000
    C338    C    0.22230   0.92037   0.44694   1.000
    C339    C    0.33475   0.84029   0.45022   1.000
    C340    C    0.96408   0.57278   0.38620   1.000
    C341    C    0.07121   0.49287   0.45049   1.000
    C342    C    0.09688   0.92026   0.98981   1.000
    C343    C    0.11471   0.90968   0.86378   1.000
    C344    C    0.38131   0.60419   0.11620   1.000
    C345    C    0.41814   0.60217   0.99715   1.000
    C346    C    0.96179   0.93270   0.69274   1.000
    C347    C    0.04872   0.04151   0.71367   1.000
    C348    C    0.94684   0.01028   0.86995   1.000
    C349    C    0.41502   0.25411   0.32944   1.000
    C350    C    0.27767   0.42059   0.55010   1.000
    C351    C    0.16599   0.34041   0.55010   1.000
    C352    C    0.53664   0.07304   0.61175   1.000
    C353    C    0.42934   0.99307   0.54849   1.000
    C354    C    0.40309   0.41946   0.00844   1.000
    C355    C    0.38207   0.41018   0.13344   1.000
    C356    C    0.12109   0.10089   0.88307   1.000
    C357    C    0.07972   0.10342   0.40000   1.000
    C358    C    0.53825   0.43262   0.30650   1.000
    C359    C    0.44777   0.53887   0.28360   1.000
    C360    C    0.55197   0.50740   0.12907   1.000
    C361    C    0.08497   0.75357   0.67020   1.000
    O362    O    0.70263   0.97687   0.00000   1.000
    O363    O    0.20241   0.52295   0.00000   1.000
    O364    O    0.16595   0.48427   0.03525   1.000
    O365    O    0.15171   0.49259   0.96355   1.000
    O366    O    0.66606   0.01550   0.03583   1.000
    O367    O    0.65167   0.00692   0.96417   1.000
    O368    O    0.60212   0.38467   0.97711   1.000
    O369    O    0.54047   0.44902   0.00031   1.000
    O370    O    0.38633   0.40364   0.03452   1.000
    O371    O    0.45152   0.45975   0.00400   1.000
    O372    O    0.88603   0.09594   0.03580   1.000
    O373    O    0.95137   0.04020   0.00474   1.000
    O374    O    0.98043   0.62409   0.01643   1.000
    O375    O    0.95076   0.58716   0.04603   1.000
    O376    O    0.93668   0.59543   0.97400   1.000
    O377    O    0.48867   0.87522   0.01673   1.000
    O378    O    0.45087   0.91233   0.04615   1.000
    O379    O    0.43667   0.90385   0.97418   1.000
    O380    O    0.34387   0.66216   0.03052   1.000
    O381    O    0.28916   0.71254   0.04193   1.000
    O382    O    0.30309   0.70906   0.97628   1.000
    O383    O    0.84440   0.83797   0.03070   1.000
    O384    O    0.78954   0.78765   0.04208   1.000
    O385    O    0.80399   0.79097   0.97660   1.000
    O386    O    0.33908   0.35313   0.04761   1.000
    O387    O    0.28623   0.30113   0.06074   1.000
    O388    O    0.30109   0.30399   0.99544   1.000
    O389    O    0.83875   0.14641   0.04876   1.000
    O390    O    0.78611   0.19858   0.06189   1.000
    O391    O    0.80035   0.19526   0.99637   1.000
    O392    O    0.23686   0.76035   0.05495   1.000
    O393    O    0.18975   0.80474   0.06201   1.000
    O394    O    0.19880   0.80500   0.00246   1.000
    O395    O    0.73708   0.73989   0.05503   1.000
    O396    O    0.68984   0.69556   0.06201   1.000
    O397    O    0.69945   0.69508   0.00267   1.000
    O398    O    0.37870   0.61658   0.08068   1.000
    O399    O    0.39711   0.61557   0.02116   1.000
    O400    O    0.87907   0.88353   0.08080   1.000
    O401    O    0.89765   0.88459   0.02129   1.000
    O402    O    0.37582   0.39900   0.09702   1.000
    O403    O    0.23389   0.25326   0.07373   1.000
    O404    O    0.18553   0.21013   0.08049   1.000
    O405    O    0.19606   0.20856   0.02126   1.000
    O406    O    0.73399   0.24663   0.07485   1.000
    O407    O    0.68582   0.28993   0.08160   1.000
    O408    O    0.69574   0.29104   0.02212   1.000
    O409    O    0.87569   0.10059   0.09832   1.000
    O410    O    0.12168   0.43964   0.06699   1.000
    O411    O    0.07659   0.39408   0.09908   1.000
    O412    O    0.06306   0.40367   0.02492   1.000
    O413    O    0.62168   0.06006   0.06799   1.000
    O414    O    0.57647   0.10553   0.09981   1.000
    O415    O    0.56281   0.09574   0.02571   1.000
    O416    O    0.27335   0.71867   0.09858   1.000
    O417    O    0.77327   0.78165   0.09857   1.000
    O418    O    0.17651   0.47362   0.09972   1.000
    O419    O    0.67672   0.02637   0.10088   1.000
    O420    O    0.40652   0.95665   0.07561   1.000
    O421    O    0.36200   0.99185   0.10776   1.000
    O422    O    0.34805   0.99185   0.03334   1.000
    O423    O    0.90630   0.54305   0.07572   1.000
    O424    O    0.86167   0.49674   0.10815   1.000
    O425    O    0.84788   0.50685   0.03364   1.000
    O426    O    0.01785   0.28217   0.10259   1.000
    O427    O    0.51742   0.21731   0.10271   1.000
    O428    O    0.96041   0.57705   0.10898   1.000
    O429    O    0.46066   0.92267   0.10904   1.000
    O430    O    0.26991   0.29526   0.11718   1.000
    O431    O    0.77032   0.20482   0.11851   1.000
    O432    O    0.19449   0.02722   0.11861   1.000
    O433    O    0.69411   0.47042   0.11918   1.000
    O434    O    0.41469   0.55719   0.14509   1.000
    O435    O    0.91509   0.94270   0.14532   1.000
    O436    O    0.09122   0.98025   0.14568   1.000
    O437    O    0.00047   0.99110   0.15162   1.000
    O438    O    0.59078   0.51996   0.14574   1.000
    O439    O    0.50002   0.50879   0.15152   1.000
    O440    O    0.04561   0.33732   0.13259   1.000
    O441    O    0.01550   0.28149   0.16395   1.000
    O442    O    0.54537   0.16228   0.13303   1.000
    O443    O    0.51516   0.21810   0.16410   1.000
    O444    O    0.34174   0.04322   0.13742   1.000
    O445    O    0.84134   0.44557   0.13863   1.000
    O446    O    0.41506   0.46018   0.15371   1.000
    O447    O    0.07634   0.39527   0.17185   1.000
    O448    O    0.91532   0.03947   0.15459   1.000
    O449    O    0.57629   0.10442   0.17261   1.000
    O450    O    0.16497   0.98390   0.15126   1.000
    O451    O    0.24039   0.99038   0.15548   1.000
    O452    O    0.66452   0.51392   0.15140   1.000
    O453    O    0.73995   0.50751   0.15566   1.000
    O454    O    0.31636   0.99038   0.15736   1.000
    O455    O    0.37958   0.00000   0.16924   1.000
    O456    O    0.81592   0.49855   0.15764   1.000
    O457    O    0.87914   0.47772   0.16980   1.000
    O458    O    0.63924   0.56395   0.19109   1.000
    O459    O    0.13982   0.93654   0.19146   1.000
    O460    O    0.29026   0.94996   0.19789   1.000
    O461    O    0.78970   0.55070   0.19756   1.000
    O462    O    0.44791   0.52453   0.22879   1.000
    O463    O    0.94956   0.97411   0.22927   1.000
    O464    O    0.49008   0.26552   0.19509   1.000
    O465    O    0.99049   0.23408   0.19521   1.000
    O466    O    0.01613   0.28392   0.23431   1.000
    O467    O    0.51591   0.21578   0.23450   1.000
    O468    O    0.10198   0.44482   0.21173   1.000
    O469    O    0.07694   0.39741   0.24263   1.000
    O470    O    0.60207   0.05494   0.21275   1.000
    O471    O    0.57698   0.10237   0.24342   1.000
    O472    O    0.62308   0.60985   0.23009   1.000
    O473    O    0.69096   0.60755   0.23442   1.000
    O474    O    0.12378   0.89086   0.23092   1.000
    O475    O    0.19166   0.89325   0.23526   1.000
    O476    O    0.83236   0.58930   0.23565   1.000
    O477    O    0.76600   0.60071   0.23663   1.000
    O478    O    0.33302   0.91170   0.23647   1.000
    O479    O    0.26668   0.90019   0.23747   1.000
    O480    O    0.74105   0.64412   0.27085   1.000
    O481    O    0.24182   0.85698   0.27211   1.000
    O482    O    0.04685   0.34188   0.27373   1.000
    O483    O    0.01616   0.28369   0.30698   1.000
    O484    O    0.54681   0.15791   0.27424   1.000
    O485    O    0.51608   0.21612   0.30719   1.000
    O486    O    0.07552   0.39591   0.30465   1.000
    O487    O    0.57560   0.10395   0.30542   1.000
    O488    O    0.26337   0.24093   0.29419   1.000
    O489    O    0.76338   0.25858   0.29478   1.000
    O490    O    0.47169   0.51268   0.30723   1.000
    O491    O    0.97363   0.98552   0.30762   1.000
    O492    O    0.17900   0.15742   0.30222   1.000
    O493    O    0.67892   0.34209   0.30225   1.000
    O494    O    0.01735   0.03979   0.31865   1.000
    O495    O    0.51694   0.45955   0.31869   1.000
    O496    O    0.24292   0.18147   0.30988   1.000
    O497    O    0.31646   0.20192   0.32051   1.000
    O498    O    0.74287   0.31815   0.30985   1.000
    O499    O    0.81644   0.29780   0.32038   1.000
    O500    O    0.72646   0.38513   0.32997   1.000
    O501    O    0.22658   0.11463   0.33067   1.000
    O502    O    0.88757   0.27629   0.33160   1.000
    O503    O    0.96048   0.25460   0.33607   1.000
    O504    O    0.38755   0.22355   0.33184   1.000
    O505    O    0.46042   0.24525   0.33614   1.000
    O506    O    0.49649   0.49021   0.37424   1.000
    O507    O    0.99744   0.00876   0.37437   1.000
    O508    O    0.87162   0.34577   0.34926   1.000
    O509    O    0.37167   0.15419   0.35019   1.000
    O510    O    0.02000   0.23283   0.34728   1.000
    O511    O    0.01714   0.28134   0.37006   1.000
    O512    O    0.51992   0.26702   0.34723   1.000
    O513    O    0.51714   0.21856   0.37030   1.000
    O514    O    0.71756   0.44596   0.35156   1.000
    O515    O    0.78177   0.43150   0.35974   1.000
    O516    O    0.21775   0.05393   0.35286   1.000
    O517    O    0.28192   0.06851   0.36123   1.000
    O518    O    0.85335   0.41248   0.36851   1.000
    O519    O    0.91619   0.39436   0.37506   1.000
    O520    O    0.35348   0.08761   0.37011   1.000
    O521    O    0.41630   0.10580   0.37671   1.000
    O522    O    0.84406   0.49100   0.40460   1.000
    O523    O    0.34426   0.00917   0.40686   1.000
    O524    O    0.00289   0.56765   0.40453   1.000
    O525    O    0.91433   0.55724   0.41155   1.000
    O526    O    0.50218   0.93212   0.40549   1.000
    O527    O    0.41406   0.94277   0.41353   1.000
    O528    O    0.42066   0.56647   0.42201   1.000
    O529    O    0.92175   0.93241   0.42249   1.000
    O530    O    0.47000   0.52101   0.43082   1.000
    O531    O    0.52578   0.47002   0.44553   1.000
    O532    O    0.97082   0.97810   0.43104   1.000
    O533    O    0.02625   0.02941   0.44552   1.000
    O534    O    0.02734   0.71619   0.42316   1.000
    O535    O    0.52708   0.78346   0.42451   1.000
    O536    O    0.07020   0.59904   0.42736   1.000
    O537    O    0.05645   0.52770   0.43667   1.000
    O538    O    0.56961   0.90070   0.42788   1.000
    O539    O    0.55587   0.97200   0.43725   1.000
    O540    O    0.08026   0.67461   0.42984   1.000
    O541    O    0.08731   0.74833   0.43206   1.000
    O542    O    0.57983   0.82511   0.43048   1.000
    O543    O    0.58704   0.75139   0.43277   1.000
    O544    O    0.14311   0.63163   0.43828   1.000
    O545    O    0.64253   0.86815   0.43815   1.000
    O546    O    0.09897   0.81341   0.43525   1.000
    O547    O    0.59881   0.68632   0.43595   1.000
    O548    O    0.15708   0.77913   0.44162   1.000
    O549    O    0.65677   0.72065   0.44151   1.000
    O550    O    0.84918   0.60070   0.44181   1.000
    O551    O    0.89632   0.52440   0.49168   1.000
    O552    O    0.34978   0.89939   0.44493   1.000
    O553    O    0.39707   0.97578   0.49406   1.000
    O554    O    0.44374   0.55103   0.48437   1.000
    O555    O    0.70124   0.90239   0.44595   1.000
    O556    O    0.71228   0.83736   0.44707   1.000
    O557    O    0.94428   0.94832   0.48468   1.000
    O558    O    0.20191   0.59744   0.44671   1.000
    O559    O    0.21288   0.66249   0.44797   1.000
    O560    O    0.72764   0.68709   0.44709   1.000
    O561    O    0.71931   0.76358   0.44812   1.000
    O562    O    0.79405   0.65466   0.44734   1.000
    O563    O    0.73825   0.61454   0.44736   1.000
    O564    O    0.22807   0.81272   0.44821   1.000
    O565    O    0.21980   0.73626   0.44908   1.000
    O566    O    0.23854   0.88528   0.44821   1.000
    O567    O    0.29477   0.84524   0.44985   1.000
    O568    O    0.77198   0.80508   0.45361   1.000
    O569    O    0.10317   0.47562   0.50519   1.000
    O570    O    0.60296   0.02414   0.50542   1.000
    O571    O    0.27262   0.69486   0.45523   1.000
    O572    O    0.08833   0.09916   0.42600   1.000
    O573    O    0.57554   0.42552   0.46283   1.000
    O574    O    0.05513   0.05095   0.51362   1.000
    O575    O    0.55523   0.44899   0.51378   1.000
    O576    O    0.42355   0.57464   0.53529   1.000
    O577    O    0.47317   0.52998   0.55261   1.000
    O578    O    0.92377   0.92498   0.53563   1.000
    O579    O    0.97314   0.96988   0.55277   1.000
    O580    O    0.72684   0.30525   0.54246   1.000
    O581    O    0.22791   0.19497   0.54442   1.000
    O582    O    0.94290   0.47230   0.56026   1.000
    O583    O    0.77966   0.26380   0.54884   1.000
    O584    O    0.78659   0.33757   0.54957   1.000
    O585    O    0.70458   0.15481   0.54817   1.000
    O586    O    0.64986   0.10060   0.55355   1.000
    O587    O    0.28060   0.23644   0.54983   1.000
    O588    O    0.28764   0.16266   0.55133   1.000
    O589    O    0.79758   0.40262   0.55051   1.000
    O590    O    0.44412   0.02793   0.56205   1.000
    O591    O    0.77140   0.18734   0.55016   1.000
    O592    O    0.76112   0.11481   0.55117   1.000
    O593    O    0.26161   0.38550   0.54964   1.000
    O594    O    0.20577   0.34542   0.54964   1.000
    O595    O    0.27225   0.31293   0.55038   1.000
    O596    O    0.15056   0.39939   0.55499   1.000
    O597    O    0.29869   0.09762   0.55284   1.000
    O598    O    0.84238   0.22090   0.55652   1.000
    O599    O    0.34316   0.27934   0.55638   1.000
    O600    O    0.85637   0.36840   0.55908   1.000
    O601    O    0.02856   0.02120   0.56722   1.000
    O602    O    0.07765   0.06688   0.57578   1.000
    O603    O    0.52889   0.47893   0.56731   1.000
    O604    O    0.57822   0.43346   0.57606   1.000
    O605    O    0.35741   0.13184   0.56059   1.000
    O606    O    0.08530   0.44281   0.58515   1.000
    O607    O    0.15562   0.50897   0.59246   1.000
    O608    O    0.58594   0.05725   0.58583   1.000
    O609    O    0.65566   0.99076   0.59265   1.000
    O610    O    0.40115   0.31363   0.56198   1.000
    O611    O    0.41292   0.24857   0.56550   1.000
    O612    O    0.90050   0.18659   0.56311   1.000
    O613    O    0.91215   0.25166   0.56589   1.000
    O614    O    0.91921   0.32539   0.56771   1.000
    O615    O    0.92927   0.40097   0.56979   1.000
    O616    O    0.42012   0.17485   0.56822   1.000
    O617    O    0.43034   0.09929   0.57112   1.000
    O618    O    0.47290   0.21648   0.57413   1.000
    O619    O    0.96882   0.28378   0.57458   1.000
    O620    O    0.99662   0.43237   0.59225   1.000
    O621    O    0.49777   0.06792   0.59368   1.000
    O622    O    0.50246   0.50952   0.62391   1.000
    O623    O    0.00195   0.99082   0.62392   1.000
    O624    O    0.98285   0.71828   0.62911   1.000
    O625    O    0.48231   0.78183   0.62935   1.000
    O626    O    0.08353   0.60545   0.62268   1.000
    O627    O    0.58336   0.89436   0.62294   1.000
    O628    O    0.14634   0.58731   0.62912   1.000
    O629    O    0.21789   0.56823   0.63775   1.000
    O630    O    0.64622   0.91236   0.62943   1.000
    O631    O    0.71783   0.93126   0.63817   1.000
    O632    O    0.12819   0.65377   0.64909   1.000
    O633    O    0.62788   0.84584   0.64936   1.000
    O634    O    0.28204   0.55369   0.64587   1.000
    O635    O    0.78204   0.94567   0.64644   1.000
    O636    O    0.98004   0.76670   0.65207   1.000
    O637    O    0.47940   0.73328   0.65224   1.000
    O638    O    0.27328   0.61428   0.66812   1.000
    O639    O    0.77308   0.88496   0.66853   1.000
    O640    O    0.03953   0.74480   0.66337   1.000
    O641    O    0.98368   0.71570   0.69219   1.000
    O642    O    0.53893   0.75498   0.66352   1.000
    O643    O    0.48324   0.78406   0.69244   1.000
    O644    O    0.11239   0.72303   0.66760   1.000
    O645    O    0.18345   0.70141   0.67860   1.000
    O646    O    0.61185   0.77654   0.66779   1.000
    O647    O    0.68299   0.79793   0.67885   1.000
    O648    O    0.92419   0.60342   0.69426   1.000
    O649    O    0.42408   0.89638   0.69452   1.000
    O650    O    0.48304   0.54057   0.67987   1.000
    O651    O    0.52645   0.48607   0.69059   1.000
    O652    O    0.98224   0.96010   0.68002   1.000
    O653    O    0.02571   0.01451   0.69049   1.000
    O654    O    0.25699   0.68099   0.68899   1.000
    O655    O    0.32090   0.65700   0.69640   1.000
    O656    O    0.75658   0.81815   0.68928   1.000
    O657    O    0.82056   0.84197   0.69678   1.000
    O658    O    0.23659   0.74035   0.70472   1.000
    O659    O    0.73599   0.75873   0.70489   1.000
    O660    O    0.75540   0.14343   0.72642   1.000
    O661    O    0.25844   0.35683   0.72701   1.000
    O662    O    0.04904   0.02597   0.76849   1.000
    O663    O    0.55023   0.47438   0.76874   1.000
    O664    O    0.95287   0.65741   0.72527   1.000
    O665    O    0.92272   0.60184   0.75628   1.000
    O666    O    0.45262   0.84224   0.72554   1.000
    O667    O    0.42262   0.89776   0.75653   1.000
    O668    O    0.98358   0.71533   0.76477   1.000
    O669    O    0.48321   0.78413   0.76508   1.000
    O670    O    0.73122   0.10014   0.76148   1.000
    O671    O    0.80609   0.10775   0.76331   1.000
    O672    O    0.23351   0.39990   0.76156   1.000
    O673    O    0.30855   0.39314   0.76373   1.000
    O674    O    0.16715   0.41123   0.76261   1.000
    O675    O    0.66509   0.08807   0.76286   1.000
    O676    O    0.87388   0.11075   0.76729   1.000
    O677    O    0.37642   0.39089   0.76802   1.000
    O678    O    0.20983   0.44954   0.80102   1.000
    O679    O    0.70840   0.05032   0.80151   1.000
    O680    O    0.85857   0.06515   0.80723   1.000
    O681    O    0.36032   0.43646   0.80739   1.000
    O682    O    0.89764   0.55440   0.78712   1.000
    O683    O    0.39766   0.94516   0.78734   1.000
    O684    O    0.92329   0.60390   0.82706   1.000
    O685    O    0.42320   0.89547   0.82731   1.000
    O686    O    0.00923   0.76512   0.80394   1.000
    O687    O    0.98418   0.71766   0.83512   1.000
    O688    O    0.50876   0.73417   0.80429   1.000
    O689    O    0.48383   0.78157   0.83542   1.000
    O690    O    0.12040   0.52205   0.82932   1.000
    O691    O    0.62018   0.97684   0.83090   1.000
    O692    O    0.08204   0.96005   0.84354   1.000
    O693    O    0.99811   0.01035   0.84662   1.000
    O694    O    0.08523   0.05566   0.85318   1.000
    O695    O    0.58428   0.53950   0.84410   1.000
    O696    O    0.49931   0.49119   0.84664   1.000
    O697    O    0.58467   0.44295   0.85288   1.000
    O698    O    0.18364   0.50132   0.84131   1.000
    O699    O    0.25962   0.49244   0.84326   1.000
    O700    O    0.68313   0.99832   0.84243   1.000
    O701    O    0.75890   0.00808   0.84399   1.000
    O702    O    0.33507   0.48612   0.84746   1.000
    O703    O    0.40883   0.48018   0.85301   1.000
    O704    O    0.83418   0.01530   0.84789   1.000
    O705    O    0.90781   0.02221   0.85320   1.000
    O706    O    0.22762   0.79482   0.87989   1.000
    O707    O    0.72936   0.70489   0.88047   1.000
    O708    O    0.15818   0.55415   0.86057   1.000
    O709    O    0.13795   0.50282   0.89090   1.000
    O710    O    0.65851   0.94527   0.86233   1.000
    O711    O    0.63780   0.99647   0.89228   1.000
    O712    O    0.30548   0.52930   0.88001   1.000
    O713    O    0.80536   0.97180   0.88090   1.000
    O714    O    0.03949   0.42210   0.88997   1.000
    O715    O    0.53898   0.07684   0.89090   1.000
    O716    O    0.12187   0.89891   0.90041   1.000
    O717    O    0.95403   0.66180   0.86640   1.000
    O718    O    0.92305   0.60506   0.89986   1.000
    O719    O    0.45382   0.83739   0.86666   1.000
    O720    O    0.42295   0.89416   0.90007   1.000
    O721    O    0.62396   0.60049   0.90103   1.000
    O722    O    0.98181   0.71689   0.89647   1.000
    O723    O    0.48148   0.78216   0.89679   1.000
    O724    O    0.22817   0.21664   0.89980   1.000
    O725    O    0.72659   0.28200   0.90022   1.000
    O726    O    0.32283   0.97344   0.89915   1.000
    O727    O    0.82294   0.52575   0.89931   1.000
    O728    O    0.62081   0.38378   0.91767   1.000
    O729    O    0.12252   0.11441   0.91797   1.000
    O730    O    0.31246   0.70993   0.91661   1.000
    O731    O    0.81378   0.79002   0.91709   1.000
    O732    O    0.26437   0.75324   0.92356   1.000
    O733    O    0.21238   0.80136   0.93673   1.000
    O734    O    0.76570   0.74664   0.92401   1.000
    O735    O    0.71362   0.69851   0.93714   1.000
    O736    O    0.31129   0.30305   0.93630   1.000
    O737    O    0.81002   0.19580   0.93701   1.000
    O738    O    0.09346   0.45624   0.92328   1.000
    O739    O    0.04908   0.41195   0.95290   1.000
    O740    O    0.59316   0.04296   0.92438   1.000
    O741    O    0.54869   0.08721   0.95375   1.000
    O742    O    0.37783   0.93963   0.93197   1.000
    O743    O    0.33357   0.98331   0.96168   1.000
    O744    O    0.87790   0.55959   0.93197   1.000
    O745    O    0.83356   0.51513   0.96191   1.000
    O746    O    0.26395   0.25879   0.94322   1.000
    O747    O    0.21126   0.21123   0.95605   1.000
    O748    O    0.76277   0.24013   0.94388   1.000
    O749    O    0.71028   0.28785   0.95667   1.000
    O750    O    0.15980   0.85358   0.95004   1.000
    O751    O    0.11295   0.90420   0.96343   1.000
    O752    O    0.66095   0.64630   0.95041   1.000
    O753    O    0.61358   0.59598   0.96363   1.000
    O754    O    0.15608   0.16118   0.96740   1.000
    O755    O    0.65540   0.33812   0.96788   1.000
    O756    O    0.01125   0.37487   0.98244   1.000
    O757    O    0.51078   0.12426   0.98310   1.000
    O758    O    0.29711   0.02197   0.99081   1.000
    O759    O    0.79702   0.47662   0.99129   1.000
    O760    O    0.54840   0.54017   0.99467   1.000
    O761    O    0.04845   0.96027   0.99474   1.000
    O762    O    0.45905   0.55111   0.99836   1.000
    O763    O    0.95937   0.94914   0.99848   1.000
    O764    O    0.02619   0.99648   0.06428   1.000
    O765    O    0.47381   0.49637   0.93463   1.000
    O766    O    0.97343   0.00528   0.93481   1.000
    O767    O    0.52597   0.50372   0.06432   1.000
loop_
    _geom_bond_atom_site_label_1
    _geom_bond_atom_site_label_2
    _geom_bond_distance
    _geom_bond_site_symmetry_2
    _ccdc_geom_bond_type
    C81    O362      0.55343      .   S
    C232   O362      0.55343      .   S
    C51    O363      0.55311      .   S
    C188   O363      0.55311      .   S
    C188   O364      0.72397      .   S
    C187   O364      0.72397      .   S
    C188   O365      0.67432  1_554   S
    C189   O365      0.67432      .   S
    C232   O366      0.73448  1_565   S
    C231   O366      0.73448      .   S
    C232   O367      0.66535  1_564   S
    C233   O367      0.66535      .   S
    C321   O368      0.63511  1_554   S
    C162   O368      0.63511      .   S
    C321   O369      1.06009      .   S
    C9     O369      1.06009  1_556   S
    C354   O370      0.63351      .   S
    C301   O370      0.63351      .   S
    C354   O371      1.04021      .   S
    C9     O371      1.04021  1_556   S
    C318   O372      0.63280      .   S
    C169   O372      0.63280      .   S
    C318   O373      1.04210      .   S
    C8     O373      1.04210  1_456   S
    C279   O374      0.44666      .   S
    C113   O374      0.44666  1_455   S
    C279   O375      0.69643      .   S
    C278   O375      0.69643      .   S
    C279   O376      0.70341  1_554   S
    C274   O376      0.70341      .   S
    C147   O377      0.54481      .   S
    C23    O377      0.54481      .   S
    C147   O378      0.69652      .   S
    C146   O378      0.69652      .   S
    C147   O379      0.70336  1_554   S
    C142   O379      0.70336      .   S
    C252   O380      0.75358      .   S
    C250   O380      0.75358      .   S
    C252   O381      0.70199      .   S
    C253   O381      0.70199      .   S
    C252   O382      0.70193  1_554   S
    C251   O382      0.70193      .   S
    C208   O383      0.75356      .   S
    C206   O383      0.75356      .   S
    C208   O384      0.70213      .   S
    C209   O384      0.70213      .   S
    C208   O385      0.70196  1_554   S
    C207   O385      0.70196      .   S
    C299   O386      0.75118      .   S
    C301   O386      0.75118      .   S
    C299   O387      0.70102      .   S
    C300   O387      0.70102      .   S
    C299   O388      0.70138  1_554   S
    C298   O388      0.70138      .   S
    C167   O389      0.75092      .   S
    C169   O389      0.75092      .   S
    C167   O390      0.70098      .   S
    C168   O390      0.70098      .   S
    C167   O391      0.70125  1_554   S
    C166   O391      0.70125      .   S
    C254   O392      0.69507      .   S
    C253   O392      0.69507      .   S
    C254   O393      0.54410      .   S
    C96    O393      0.54410      .   S
    C254   O394      0.70133      .   S
    C255   O394      0.70133  1_556   S
    C210   O395      0.69512      .   S
    C209   O395      0.69512      .   S
    C210   O396      0.54408      .   S
    C66    O396      0.54408      .   S
    C210   O397      0.70129      .   S
    C211   O397      0.70129  1_556   S
    C250   O398      0.63836      .   S
    C344   O398      0.63836      .   S
    C250   O399      0.63517      .   S
    C345   O399      0.63517  1_556   S
    C206   O400      0.63904      .   S
    C332   O400      0.63904      .   S
    C206   O401      0.63520      .   S
    C333   O401      0.63520  1_556   S
    C301   O402      0.64097      .   S
    C355   O402      0.64097      .   S
    C295   O403      0.69659      .   S
    C300   O403      0.69659      .   S
    C295   O404      0.54472      .   S
    C124   O404      0.54472      .   S
    C295   O405      0.70186      .   S
    C296   O405      0.70186  1_556   S
    C163   O406      0.69662      .   S
    C168   O406      0.69662      .   S
    C163   O407      0.54470      .   S
    C34    O407      0.54470      .   S
    C163   O408      0.70200      .   S
    C164   O408      0.70200  1_556   S
    C169   O409      0.64172      .   S
    C319   O409      0.64172      .   S
    C186   O410      0.70380      .   S
    C187   O410      0.70380      .   S
    C186   O411      0.74098      .   S
    C183   O411      0.74098      .   S
    C186   O412      0.70337      .   S
    C191   O412      0.70337  1_556   S
    C230   O413      0.70370      .   S
    C231   O413      0.70370      .   S
    C230   O414      0.74088      .   S
    C227   O414      0.74088      .   S
    C230   O415      0.70353      .   S
    C235   O415      0.70353  1_556   S
    C253   O416      0.54473      .   S
    C95    O416      0.54473      .   S
    C209   O417      0.54455      .   S
    C65    O417      0.54455      .   S
    C187   O418      0.54520      .   S
    C50    O418      0.54520      .   S
    C231   O419      0.54477      .   S
    C80    O419      0.54477      .   S
    C145   O420      0.70030      .   S
    C146   O420      0.70030      .   S
    C145   O421      0.69546      .   S
    C148   O421      0.69546  1_545   S
    C145   O422      0.69736      .   S
    C144   O422      0.69736  1_546   S
    C277   O423      0.70027      .   S
    C278   O423      0.70027      .   S
    C277   O424      0.75427      .   S
    C280   O424      0.75427      .   S
    C277   O425      0.70047      .   S
    C276   O425      0.70047  1_556   S
    C48    O426      0.54513      .   S
    C184   O426      0.54513      .   S
    C78    O427      0.54511      .   S
    C228   O427      0.54511      .   S
    C278   O428      0.54572      .   S
    C112   O428      0.54572      .   S
    C146   O429      0.54575      .   S
    C22    O429      0.54575      .   S
    C300   O430      0.54413      .   S
    C127   O430      0.54413      .   S
    C168   O431      0.54419      .   S
    C37    O431      0.54419      .   S
    C26    O432      0.57290      .   S
    C149   O432      0.57290      .   S
    C116   O433      0.54262      .   S
    C281   O433      0.54262      .   S
    C344   O434      1.00195      .   S
    C7     O434      1.00195      .   S
    C332   O435      1.00267      .   S
    C1     O435      1.00267      .   S
    C324   O436      0.65797      .   S
    C150   O436      0.65797      .   S
    C324   O437      1.00701      .   S
    C1     O437      1.00701  1_655   S
    C360   O438      0.65776      .   S
    C282   O438      0.65776      .   S
    C360   O439      1.00529      .   S
    C7     O439      1.00529      .   S
    C184   O440      0.70525      .   S
    C183   O440      0.70525      .   S
    C184   O441      0.69593      .   S
    C185   O441      0.69593      .   S
    C228   O442      0.70520      .   S
    C227   O442      0.70520      .   S
    C228   O443      0.69600      .   S
    C229   O443      0.69600      .   S
    C24    O444      0.72895      .   S
    C148   O444      0.72895      .   S
    C114   O445      0.54859      .   S
    C280   O445      0.54859      .   S
    C355   O446      0.99530      .   S
    C7     O446      0.99530      .   S
    C183   O447      0.70393      .   S
    C182   O447      0.70393      .   S
    C319   O448      0.99364      .   S
    C1     O448      0.99364  1_565   S
    C227   O449      0.70399      .   S
    C226   O449      0.70399      .   S
    C149   O450      0.69006  1_545   S
    C150   O450      0.69006      .   S
    C149   O451      0.66444  1_545   S
    C307   O451      0.66444      .   S
    C281   O452      0.70620      .   S
    C282   O452      0.70620      .   S
    C281   O453      0.67486      .   S
    C313   O453      0.67486      .   S
    C148   O454      0.68602  1_545   S
    C307   O454      0.68602      .   S
    C148   O455      0.54826      .   S
    C25    O455      0.54826      .   S
    C280   O456      0.75100      .   S
    C313   O456      0.75100      .   S
    C280   O457      0.54826      .   S
    C115   O457      0.54826      .   S
    C282   O458      0.70723      .   S
    C283   O458      0.70723      .   S
    C150   O459      0.70730      .   S
    C151   O459      0.70730      .   S
    C307   O460      0.67904      .   S
    C153   O460      0.67904      .   S
    C313   O461      0.67914      .   S
    C285   O461      0.67914      .   S
    C7     O462      0.97779      .   S
    C359   O462      0.97779      .   S
    C1     O463      0.97903      .   S
    C323   O463      0.97903      .   S
    C79    O464      0.54529      .   S
    C229   O464      0.54529      .   S
    C49    O465      0.54538      .   S
    C185   O465      0.54538  1_455   S
    C185   O466      0.70225      .   S
    C180   O466      0.70225      .   S
    C229   O467      0.70218      .   S
    C224   O467      0.70218      .   S
    C182   O468      0.54523      .   S
    C47    O468      0.54523      .   S
    C182   O469      0.69840      .   S
    C181   O469      0.69840      .   S
    C226   O470      0.54525      .   S
    C77    O470      0.54525      .   S
    C226   O471      0.69840      .   S
    C225   O471      0.69840      .   S
    C283   O472      0.54532      .   S
    C117   O472      0.54532      .   S
    C283   O473      0.69572      .   S
    C284   O473      0.69572      .   S
    C151   O474      0.54532      .   S
    C27    O474      0.54532      .   S
    C151   O475      0.69564      .   S
    C152   O475      0.69564      .   S
    C285   O476      0.54309      .   S
    C119   O476      0.54309      .   S
    C285   O477      0.69382      .   S
    C284   O477      0.69382      .   S
    C153   O478      0.54309      .   S
    C29    O478      0.54309      .   S
    C153   O479      0.69379      .   S
    C152   O479      0.69379      .   S
    C284   O480      0.54413      .   S
    C118   O480      0.54413      .   S
    C152   O481      0.54420      .   S
    C28    O481      0.54420      .   S
    C180   O482      0.70050      .   S
    C181   O482      0.70050      .   S
    C180   O483      0.75350      .   S
    C179   O483      0.75350      .   S
    C224   O484      0.70049      .   S
    C225   O484      0.70049      .   S
    C224   O485      0.75349      .   S
    C223   O485      0.75349      .   S
    C181   O486      0.54585      .   S
    C46    O486      0.54585      .   S
    C225   O487      0.54553      .   S
    C76    O487      0.54553      .   S
    C72    O488      0.54524      .   S
    C220   O488      0.54524      .   S
    C42    O489      0.54512      .   S
    C176   O489      0.54512      .   S
    C359   O490      0.65192      .   S
    C302   O490      0.65192      .   S
    C323   O491      0.65199      .   S
    C170   O491      0.65199  1_545   S
    C71    O492      0.54352      .   S
    C219   O492      0.54352      .   S
    C41    O493      0.54349      .   S
    C175   O493      0.54349      .   S
    C322   O494      0.62665      .   S
    C170   O494      0.62665  1_655   S
    C358   O495      0.62661      .   S
    C302   O495      0.62661      .   S
    C220   O496      0.69305      .   S
    C219   O496      0.69305      .   S
    C220   O497      0.70334      .   S
    C221   O497      0.70334      .   S
    C176   O498      0.69301      .   S
    C175   O498      0.69301      .   S
    C176   O499      0.70339      .   S
    C177   O499      0.70339      .   S
    C175   O500      0.69689      .   S
    C174   O500      0.69689      .   S
    C219   O501      0.69688      .   S
    C218   O501      0.69688      .   S
    C337   O502      0.67659      .   S
    C177   O502      0.67659      .   S
    C337   O503      0.72940      .   S
    C179   O503      0.72940  1_455   S
    C349   O504      0.67671      .   S
    C221   O504      0.67671      .   S
    C349   O505      0.72924      .   S
    C223   O505      0.72924      .   S
    C302   O506      0.74959      .   S
    C303   O506      0.74959      .   S
    C170   O507      0.74909      .   S
    C171   O507      0.74909      .   S
    C177   O508      0.69997      .   S
    C178   O508      0.69997      .   S
    C221   O509      0.69999      .   S
    C222   O509      0.69999      .   S
    C179   O510      0.54905      .   S
    C44    O510      0.54905      .   S
    C179   O511      0.54966      .   S
    C45    O511      0.54966      .   S
    C223   O512      0.54906      .   S
    C74    O512      0.54906      .   S
    C223   O513      0.54991      .   S
    C75    O513      0.54991      .   S
    C174   O514      0.54330      .   S
    C40    O514      0.54330      .   S
    C174   O515      0.67348      .   S
    C308   O515      0.67348      .   S
    C218   O516      0.54327      .   S
    C70    O516      0.54327      .   S
    C218   O517      0.67351      .   S
    C310   O517      0.67351      .   S
    C178   O518      0.67739      .   S
    C308   O518      0.67739      .   S
    C178   O519      0.54440      .   S
    C43    O519      0.54440      .   S
    C222   O520      0.67735      .   S
    C310   O520      0.67735      .   S
    C222   O521      0.54448      .   S
    C73    O521      0.54448      .   S
    C308   O522      1.01318      .   S
    C2     O522      1.01318      .   S
    C310   O523      1.01464      .   S
    C4     O523      1.01464  1_565   S
    C340   O524      0.63711  1_655   S
    C247   O524      0.63711      .   S
    C340   O525      1.03431      .   S
    C2     O525      1.03431      .   S
    C328   O526      0.63697      .   S
    C203   O526      0.63697      .   S
    C328   O527      1.03655      .   S
    C4     O527      1.03655      .   S
    C128   O528      0.54518      .   S
    C304   O528      0.54518      .   S
    C38    O529      0.54476      .   S
    C172   O529      0.54476      .   S
    C303   O530      0.70194      .   S
    C304   O530      0.70194      .   S
    C303   O531      0.70109      .   S
    C305   O531      0.70109      .   S
    C171   O532      0.70208  1_545   S
    C172   O532      0.70208      .   S
    C171   O533      0.70142  1_655   S
    C173   O533      0.70142      .   S
    C91    O534      0.54482  1_655   S
    C245   O534      0.54482      .   S
    C61    O535      0.54484      .   S
    C201   O535      0.54484      .   S
    C247   O536      0.74773      .   S
    C246   O536      0.74773      .   S
    C247   O537      0.64190      .   S
    C341   O537      0.64190      .   S
    C203   O538      0.74803      .   S
    C202   O538      0.74803      .   S
    C203   O539      0.64196      .   S
    C329   O539      0.64196  1_545   S
    C245   O540      0.70319      .   S
    C246   O540      0.70319      .   S
    C245   O541      0.69529      .   S
    C244   O541      0.69529      .   S
    C201   O542      0.70323      .   S
    C202   O542      0.70323      .   S
    C201   O543      0.69538      .   S
    C200   O543      0.69538      .   S
    C246   O544      0.70218      .   S
    C248   O544      0.70218      .   S
    C202   O545      0.70225      .   S
    C204   O545      0.70225      .   S
    C90    O546      0.54463      .   S
    C244   O546      0.54463      .   S
    C60    O547      0.54464      .   S
    C200   O547      0.54464      .   S
    C244   O548      0.70180      .   S
    C243   O548      0.70180      .   S
    C200   O549      0.70191      .   S
    C199   O549      0.70191      .   S
    C2     O550      1.00695      .   S
    C327   O550      1.00695      .   S
    C2     O551      1.00428      .   S
    C317   O551      1.00428      .   S
    C4     O552      1.00768      .   S
    C339   O552      1.00768      .   S
    C4     O553      1.00294      .   S
    C353   O553      1.00294      .   S
    C304   O554      0.69558      .   S
    C217   O554      0.69558      .   S
    C204   O555      0.54532      .   S
    C62    O555      0.54532      .   S
    C204   O556      0.69645      .   S
    C205   O556      0.69645      .   S
    C172   O557      0.69563      .   S
    C261   O557      0.69563      .   S
    C248   O558      0.54533      .   S
    C92    O558      0.54533      .   S
    C248   O559      0.69636      .   S
    C249   O559      0.69636      .   S
    C199   O560      0.74808      .   S
    C198   O560      0.74808      .   S
    C199   O561      0.70225      .   S
    C205   O561      0.70225      .   S
    C327   O562      0.64967      .   S
    C198   O562      0.64967      .   S
    C326   O563      0.62993      .   S
    C198   O563      0.62993      .   S
    C243   O564      0.74773      .   S
    C242   O564      0.74773      .   S
    C243   O565      0.70220      .   S
    C249   O565      0.70220      .   S
    C338   O566      0.63027      .   S
    C242   O566      0.63027      .   S
    C242   O567      0.64939      .   S
    C339   O567      0.64939      .   S
    C205   O568      0.54445      .   S
    C63    O568      0.54445      .   S
    C341   O569      1.00407      .   S
    C6     O569      1.00407      .   S
    C329   O570      1.00407      .   S
    C0     O570      1.00407      .   S
    C249   O571      0.54442      .   S
    C93    O571      0.54442      .   S
    C39    O572      0.44338      .   S
    C357   O572      0.44338      .   S
    C129   O573      0.54479      .   S
    C305   O573      0.54479      .   S
    C173   O574      0.69512      .   S
    C260   O574      0.69512      .   S
    C305   O575      0.69536      .   S
    C216   O575      0.69536      .   S
    C217   O576      0.54448      .   S
    C69    O576      0.54448      .   S
    C217   O577      0.70107      .   S
    C215   O577      0.70107      .   S
    C261   O578      0.54453      .   S
    C99    O578      0.54453      .   S
    C261   O579      0.70118      .   S
    C259   O579      0.70118  1_455   S
    C33    O580      0.54443      .   S
    C161   O580      0.54443      .   S
    C123   O581      0.54445      .   S
    C293   O581      0.54445      .   S
    C317   O582      0.64197      .   S
    C159   O582      0.64197      .   S
    C161   O583      0.70221      .   S
    C155   O583      0.70221      .   S
    C161   O584      0.69640      .   S
    C160   O584      0.69640      .   S
    C315   O585      0.64929      .   S
    C154   O585      0.64929      .   S
    C315   O586      1.00906      .   S
    C0     O586      1.00906      .   S
    C293   O587      0.70227      .   S
    C287   O587      0.70227      .   S
    C293   O588      0.69641      .   S
    C292   O588      0.69641      .   S
    C32    O589      0.54532      .   S
    C160   O589      0.54532      .   S
    C353   O590      0.64209  1_565   S
    C291   O590      0.64209      .   S
    C154   O591      0.74777      .   S
    C155   O591      0.74777      .   S
    C154   O592      0.63053      .   S
    C314   O592      0.63053      .   S
    C286   O593      0.62999      .   S
    C350   O593      0.62999      .   S
    C286   O594      0.64954      .   S
    C351   O594      0.64954      .   S
    C286   O595      0.74805      .   S
    C287   O595      0.74805      .   S
    C351   O596      1.00682      .   S
    C6     O596      1.00682      .   S
    C122   O597      0.54531      .   S
    C292   O597      0.54531      .   S
    C155   O598      0.70191      .   S
    C156   O598      0.70191      .   S
    C287   O599      0.70195      .   S
    C288   O599      0.70195      .   S
    C160   O600      0.70217      .   S
    C158   O600      0.70217      .   S
    C260   O601      0.70200      .   S
    C259   O601      0.70200  1_565   S
    C260   O602      0.54484      .   S
    C98    O602      0.54484      .   S
    C216   O603      0.70194      .   S
    C215   O603      0.70194      .   S
    C216   O604      0.54474      .   S
    C68    O604      0.54474      .   S
    C292   O605      0.70226      .   S
    C290   O605      0.70226      .   S
    C6     O606      1.03455      .   S
    C316   O606      1.03455      .   S
    C6     O607      1.01392      .   S
    C312   O607      1.01392      .   S
    C0     O608      1.03565      .   S
    C352   O608      1.03565      .   S
    C0     O609      1.01462  1_545   S
    C306   O609      1.01462      .   S
    C288   O610      0.54456      .   S
    C120   O610      0.54456      .   S
    C288   O611      0.69533      .   S
    C289   O611      0.69533      .   S
    C156   O612      0.54460      .   S
    C30    O612      0.54460      .   S
    C156   O613      0.69527      .   S
    C157   O613      0.69527      .   S
    C158   O614      0.70319      .   S
    C157   O614      0.70319      .   S
    C158   O615      0.74787      .   S
    C159   O615      0.74787      .   S
    C290   O616      0.70323      .   S
    C289   O616      0.70323      .   S
    C290   O617      0.74785      .   S
    C291   O617      0.74785      .   S
    C289   O618      0.54480      .   S
    C121   O618      0.54480      .   S
    C157   O619      0.49246      .   S
    C31    O619      0.49246  1_455   S
    C159   O620      0.63704      .   S
    C316   O620      0.63704  1_455   S
    C291   O621      0.63693      .   S
    C352   O621      0.63693      .   S
    C215   O622      0.74934      .   S
    C214   O622      0.74934      .   S
    C259   O623      0.74937      .   S
    C258   O623      0.74937      .   S
    C105   O624      0.54991      .   S
    C267   O624      0.54991      .   S
    C15    O625      0.54993      .   S
    C135   O625      0.54993      .   S
    C103   O626      0.54450      .   S
    C266   O626      0.54450      .   S
    C13    O627      0.54448      .   S
    C134   O627      0.54448      .   S
    C312   O628      0.67745      .   S
    C266   O628      0.67745      .   S
    C312   O629      0.67349      .   S
    C262   O629      0.67349      .   S
    C306   O630      0.67739      .   S
    C134   O630      0.67739      .   S
    C306   O631      0.67349      .   S
    C130   O631      0.67349      .   S
    C266   O632      0.69990      .   S
    C265   O632      0.69990      .   S
    C134   O633      0.69998      .   S
    C133   O633      0.69998      .   S
    C100   O634      0.54330      .   S
    C262   O634      0.54330      .   S
    C10    O635      0.54327      .   S
    C130   O635      0.54327      .   S
    C104   O636      0.54908      .   S
    C267   O636      0.54908      .   S
    C14    O637      0.54905      .   S
    C135   O637      0.54905      .   S
    C262   O638      0.69688      .   S
    C263   O638      0.69688      .   S
    C130   O639      0.69691      .   S
    C131   O639      0.69691      .   S
    C267   O640      0.72951  1_655   S
    C361   O640      0.72951      .   S
    C267   O641      0.75348      .   S
    C268   O641      0.75348      .   S
    C135   O642      0.72923      .   S
    C325   O642      0.72923      .   S
    C135   O643      0.75343      .   S
    C136   O643      0.75343      .   S
    C265   O644      0.67686      .   S
    C361   O644      0.67686      .   S
    C265   O645      0.70345      .   S
    C264   O645      0.70345      .   S
    C133   O646      0.67666      .   S
    C325   O646      0.67666      .   S
    C133   O647      0.70337      .   S
    C132   O647      0.70337      .   S
    C106   O648      0.54588      .   S
    C269   O648      0.54588      .   S
    C16    O649      0.54588      .   S
    C137   O649      0.54588      .   S
    C214   O650      0.62688      .   S
    C334   O650      0.62688      .   S
    C214   O651      0.65177      .   S
    C335   O651      0.65177      .   S
    C258   O652      0.62702  1_455   S
    C346   O652      0.62702      .   S
    C258   O653      0.65166  1_565   S
    C347   O653      0.65166      .   S
    C263   O654      0.69299      .   S
    C264   O654      0.69299      .   S
    C263   O655      0.54349      .   S
    C101   O655      0.54349      .   S
    C131   O656      0.69302      .   S
    C132   O656      0.69302      .   S
    C131   O657      0.54353      .   S
    C11    O657      0.54353      .   S
    C264   O658      0.54506      .   S
    C102   O658      0.54506      .   S
    C132   O659      0.54506      .   S
    C12    O659      0.54506      .   S
    C88    O660      0.54419      .   S
    C240   O660      0.54419      .   S
    C58    O661      0.54424      .   S
    C196   O661      0.54424      .   S
    C347   O662      0.98003      .   S
    C5     O662      0.98003      .   S
    C335   O663      0.97917      .   S
    C3     O663      0.97917      .   S
    C269   O664      0.70053      .   S
    C268   O664      0.70053      .   S
    C269   O665      0.69853      .   S
    C270   O665      0.69853      .   S
    C137   O666      0.70050      .   S
    C136   O666      0.70050      .   S
    C137   O667      0.69839      .   S
    C138   O667      0.69839      .   S
    C268   O668      0.70212      .   S
    C273   O668      0.70212      .   S
    C136   O669      0.70219      .   S
    C141   O669      0.70219      .   S
    C240   O670      0.69378      .   S
    C241   O670      0.69378      .   S
    C240   O671      0.69569      .   S
    C239   O671      0.69569      .   S
    C196   O672      0.69379      .   S
    C197   O672      0.69379      .   S
    C196   O673      0.69570      .   S
    C195   O673      0.69570      .   S
    C59    O674      0.54309      .   S
    C197   O674      0.54309      .   S
    C89    O675      0.54304      .   S
    C241   O675      0.54304      .   S
    C87    O676      0.54528      .   S
    C239   O676      0.54528      .   S
    C57    O677      0.54533      .   S
    C195   O677      0.54533      .   S
    C197   O678      0.67915      .   S
    C309   O678      0.67915      .   S
    C241   O679      0.67914      .   S
    C311   O679      0.67914      .   S
    C239   O680      0.70743      .   S
    C238   O680      0.70743      .   S
    C195   O681      0.70746      .   S
    C194   O681      0.70746      .   S
    C107   O682      0.54525      .   S
    C270   O682      0.54525      .   S
    C17    O683      0.54525      .   S
    C138   O683      0.54525      .   S
    C270   O684      0.70397      .   S
    C271   O684      0.70397      .   S
    C138   O685      0.70396      .   S
    C139   O685      0.70396      .   S
    C273   O686      0.54537  1_655   S
    C109   O686      0.54537      .   S
    C273   O687      0.69591      .   S
    C272   O687      0.69591      .   S
    C141   O688      0.54530      .   S
    C19    O688      0.54530      .   S
    C141   O689      0.69556      .   S
    C140   O689      0.69556      .   S
    C55    O690      0.54798      .   S
    C192   O690      0.54798      .   S
    C85    O691      0.54829      .   S
    C236   O691      0.54829      .   S
    C5     O692      0.99670  1_545   S
    C343   O692      0.99670      .   S
    C5     O693      1.00357  1_455   S
    C348   O693      1.00357      .   S
    C5     O694      1.00560      .   S
    C356   O694      1.00560      .   S
    C3     O695      0.99592      .   S
    C331   O695      0.99592      .   S
    C3     O696      1.00695      .   S
    C336   O696      1.00695      .   S
    C3     O697      1.00354      .   S
    C320   O697      1.00354      .   S
    C309   O698      0.75083      .   S
    C192   O698      0.75083      .   S
    C309   O699      0.67493      .   S
    C193   O699      0.67493      .   S
    C311   O700      0.75100  1_545   S
    C236   O700      0.75100      .   S
    C311   O701      0.67489      .   S
    C237   O701      0.67489  1_565   S
    C194   O702      0.70640      .   S
    C193   O702      0.70640      .   S
    C194   O703      0.65771      .   S
    C336   O703      0.65771      .   S
    C238   O704      0.70622      .   S
    C237   O704      0.70622  1_565   S
    C238   O705      0.65766      .   S
    C348   O705      0.65766      .   S
    C97    O706      0.54427      .   S
    C256   O706      0.54427      .   S
    C67    O707      0.54417      .   S
    C212   O707      0.54417      .   S
    C192   O708      0.54866      .   S
    C54    O708      0.54866      .   S
    C192   O709      0.75473      .   S
    C189   O709      0.75473      .   S
    C236   O710      0.54853      .   S
    C84    O710      0.54853      .   S
    C236   O711      0.75422      .   S
    C233   O711      0.75422  1_545   S
    C193   O712      0.54255      .   S
    C56    O712      0.54255      .   S
    C237   O713      0.54249      .   S
    C86    O713      0.54249      .   S
    C52    O714      0.54566      .   S
    C190   O714      0.54566      .   S
    C82    O715      0.54569      .   S
    C234   O715      0.54569      .   S
    C343   O716      0.64090      .   S
    C257   O716      0.64090      .   S
    C271   O717      0.70517      .   S
    C272   O717      0.70517      .   S
    C271   O718      0.74092      .   S
    C274   O718      0.74092      .   S
    C139   O719      0.70521      .   S
    C140   O719      0.70521      .   S
    C139   O720      0.74082      .   S
    C142   O720      0.74082      .   S
    C331   O721      0.64110      .   S
    C213   O721      0.64110      .   S
    C272   O722      0.54506      .   S
    C108   O722      0.54506      .   S
    C140   O723      0.54559      .   S
    C18    O723      0.54559      .   S
    C125   O724      0.54460      .   S
    C297   O724      0.54460      .   S
    C35    O725      0.54454      .   S
    C165   O725      0.54454      .   S
    C20    O726      0.54484      .   S
    C143   O726      0.54484      .   S
    C110   O727      0.54483      .   S
    C275   O727      0.54483      .   S
    C320   O728      0.63879      .   S
    C162   O728      0.63879      .   S
    C356   O729      0.63876      .   S
    C294   O729      0.63876      .   S
    C94    O730      0.54475      .   S
    C251   O730      0.54475      .   S
    C64    O731      0.54471      .   S
    C207   O731      0.54471      .   S
    C256   O732      0.69681      .   S
    C251   O732      0.69681      .   S
    C256   O733      0.70106      .   S
    C255   O733      0.70106      .   S
    C212   O734      0.69678      .   S
    C207   O734      0.69678      .   S
    C212   O735      0.70107      .   S
    C211   O735      0.70107      .   S
    C126   O736      0.54415      .   S
    C298   O736      0.54415      .   S
    C36    O737      0.54455      .   S
    C166   O737      0.54455      .   S
    C190   O738      0.70033      .   S
    C189   O738      0.70033      .   S
    C190   O739      0.69652      .   S
    C191   O739      0.69652      .   S
    C234   O740      0.70030      .   S
    C233   O740      0.70030      .   S
    C234   O741      0.69624      .   S
    C235   O741      0.69624      .   S
    C143   O742      0.70370      .   S
    C142   O742      0.70370      .   S
    C143   O743      0.68919      .   S
    C144   O743      0.68919  1_545   S
    C275   O744      0.70373      .   S
    C274   O744      0.70373      .   S
    C275   O745      0.69554      .   S
    C276   O745      0.69554      .   S
    C297   O746      0.69521      .   S
    C298   O746      0.69521      .   S
    C297   O747      0.70206      .   S
    C296   O747      0.70206      .   S
    C165   O748      0.69505      .   S
    C166   O748      0.69505      .   S
    C165   O749      0.70196      .   S
    C164   O749      0.70196      .   S
    C257   O750      0.75160      .   S
    C255   O750      0.75160      .   S
    C257   O751      0.63376      .   S
    C342   O751      0.63376      .   S
    C213   O752      0.75157      .   S
    C211   O752      0.75157      .   S
    C213   O753      0.63354      .   S
    C330   O753      0.63354      .   S
    C294   O754      0.75361      .   S
    C296   O754      0.75361      .   S
    C162   O755      0.75336      .   S
    C164   O755      0.75336      .   S
    C53    O756      0.54480  1_655   S
    C191   O756      0.54480      .   S
    C83    O757      0.54481      .   S
    C235   O757      0.54481      .   S
    C21    O758      0.55427      .   S
    C144   O758      0.55427      .   S
    C111   O759      0.54452      .   S
    C276   O759      0.54452      .   S
    C330   O760      1.04048      .   S
    C9     O760      1.04048      .   S
    C342   O761      1.03989      .   S
    C8     O761      1.03989  1_545   S
    C345   O762      1.06332      .   S
    C9     O762      1.06332      .   S
    C333   O763      1.06157      .   S
    C8     O763      1.06157  1_445   S
    C324   O764      1.09857      .   S
    C8     O764      1.09857  1_546   S
    C336   O765      1.10380      .   S
    C9     O765      1.10380      .   S
    C348   O766      1.10469      .   S
    C8     O766      1.10469  1_455   S
    C360   O767      1.10049      .   S
    C9     O767      1.10049  1_556   S
