# CIF file generated by openbabel 2.4.90, see http://openbabel.sf.net
data_I
_chemical_name_common ''
_cell_length_a 16.152
_cell_length_b 16.386
_cell_length_c 17.297
_cell_angle_alpha 89.875
_cell_angle_beta 103.749
_cell_angle_gamma 90.013
_space_group_name_H-M_alt 'P 1'
_space_group_name_Hall 'P 1'
loop_
    _symmetry_equiv_pos_as_xyz
    x,y,z
loop_
    _atom_site_label
    _atom_site_type_symbol
    _atom_site_fract_x
    _atom_site_fract_y
    _atom_site_fract_z
    _atom_site_occupancy
    Zr0     Zr   0.63525   0.04147   0.55990   1.000
    Zr1     Zr   0.94858   0.98950   0.17434   1.000
    Zr2     Zr   0.86458   0.54171   0.43691   1.000
    Zr3     Zr   0.55096   0.48970   0.82359   1.000
    Zr4     Zr   0.36481   0.95850   0.43964   1.000
    Zr5     Zr   0.04937   0.01042   0.82330   1.000
    Zr6     Zr   0.13513   0.45837   0.55988   1.000
    Zr7     Zr   0.44806   0.51019   0.17398   1.000
    Zr8     Zr   0.00001   0.00028   0.99967   1.000
    Zr9     Zr   0.49996   0.50005   0.99957   1.000
    Zr10    Zr   0.74470   0.14989   0.54913   1.000
    Zr11    Zr   0.95776   0.43749   0.57408   1.000
    Zr12    Zr   0.62325   0.37134   0.95317   1.000
    Zr13    Zr   0.86933   0.11176   0.06180   1.000
    Zr14    Zr   0.99673   0.01233   0.33103   1.000
    Zr15    Zr   0.75431   0.64963   0.44797   1.000
    Zr16    Zr   0.54106   0.93720   0.42356   1.000
    Zr17    Zr   0.87656   0.87118   0.04530   1.000
    Zr18    Zr   0.63031   0.61167   0.93747   1.000
    Zr19    Zr   0.50340   0.51307   0.66729   1.000
    Zr20    Zr   0.25479   0.85019   0.44948   1.000
    Zr21    Zr   0.04170   0.56253   0.42286   1.000
    Zr22    Zr   0.37609   0.62896   0.04517   1.000
    Zr23    Zr   0.12902   0.88814   0.93705   1.000
    Zr24    Zr   0.00269   0.98750   0.66730   1.000
    Zr25    Zr   0.24554   0.35042   0.54919   1.000
    Zr26    Zr   0.45890   0.06280   0.57561   1.000
    Zr27    Zr   0.36958   0.38783   0.06060   1.000
    Zr28    Zr   0.49562   0.48648   0.33087   1.000
    Zr29    Zr   0.77754   0.07973   0.55321   1.000
    Zr30    Zr   0.66446   0.15973   0.54721   1.000
    Zr31    Zr   0.03547   0.42725   0.61041   1.000
    Zr32    Zr   0.92805   0.50710   0.54644   1.000
    Zr33    Zr   0.90273   0.08012   0.00980   1.000
    Zr34    Zr   0.88206   0.08943   0.13485   1.000
    Zr35    Zr   0.61837   0.39621   0.88217   1.000
    Zr36    Zr   0.58098   0.39799   0.00106   1.000
    Zr37    Zr   0.03796   0.06726   0.30627   1.000
    Zr38    Zr   0.95053   0.95871   0.28420   1.000
    Zr39    Zr   0.72218   0.57944   0.44675   1.000
    Zr40    Zr   0.83378   0.65969   0.44671   1.000
    Zr41    Zr   0.46330   0.92704   0.38742   1.000
    Zr42    Zr   0.57068   0.00680   0.45094   1.000
    Zr43    Zr   0.59684   0.58029   0.98978   1.000
    Zr44    Zr   0.61760   0.58931   0.86460   1.000
    Zr45    Zr   0.88159   0.89589   0.11630   1.000
    Zr46    Zr   0.91873   0.89800   0.99729   1.000
    Zr47    Zr   0.46268   0.56807   0.69244   1.000
    Zr48    Zr   0.54950   0.45907   0.71390   1.000
    Zr49    Zr   0.22230   0.92037   0.44694   1.000
    Zr50    Zr   0.33475   0.84029   0.45022   1.000
    Zr51    Zr   0.96408   0.57278   0.38620   1.000
    Zr52    Zr   0.07121   0.49287   0.45049   1.000
    Zr53    Zr   0.09688   0.92026   0.98981   1.000
    Zr54    Zr   0.11471   0.90968   0.86378   1.000
    Zr55    Zr   0.38131   0.60419   0.11620   1.000
    Zr56    Zr   0.41814   0.60217   0.99715   1.000
    Zr57    Zr   0.96179   0.93270   0.69274   1.000
    Zr58    Zr   0.04872   0.04151   0.71367   1.000
    Zr59    Zr   0.27767   0.42059   0.55010   1.000
    Zr60    Zr   0.16599   0.34041   0.55010   1.000
    Zr61    Zr   0.53664   0.07304   0.61175   1.000
    Zr62    Zr   0.42934   0.99307   0.54849   1.000
    Zr63    Zr   0.40309   0.41946   0.00844   1.000
    Zr64    Zr   0.38207   0.41018   0.13344   1.000
    Zr65    Zr   0.53825   0.43262   0.30650   1.000
    Zr66    Zr   0.44777   0.53887   0.28360   1.000
    O67     O    0.60212   0.38467   0.97711   1.000
    O68     O    0.54047   0.44902   0.00031   1.000
    O69     O    0.38633   0.40364   0.03452   1.000
    O70     O    0.45152   0.45975   0.00400   1.000
    O71     O    0.88603   0.09594   0.03580   1.000
    O72     O    0.95137   0.04020   0.00474   1.000
    O73     O    0.37870   0.61658   0.08068   1.000
    O74     O    0.39711   0.61557   0.02116   1.000
    O75     O    0.87907   0.88353   0.08080   1.000
    O76     O    0.89765   0.88459   0.02129   1.000
    O77     O    0.37582   0.39900   0.09702   1.000
    O78     O    0.87569   0.10059   0.09832   1.000
    O79     O    0.41469   0.55719   0.14509   1.000
    O80     O    0.91509   0.94270   0.14532   1.000
    O81     O    0.41506   0.46018   0.15371   1.000
    O82     O    0.91532   0.03947   0.15459   1.000
    O83     O    0.44791   0.52453   0.22879   1.000
    O84     O    0.94956   0.97411   0.22927   1.000
    O85     O    0.47169   0.51268   0.30723   1.000
    O86     O    0.97363   0.98552   0.30762   1.000
    O87     O    0.01735   0.03979   0.31865   1.000
    O88     O    0.51694   0.45955   0.31869   1.000
    O89     O    0.00289   0.56765   0.40453   1.000
    O90     O    0.91433   0.55724   0.41155   1.000
    O91     O    0.50218   0.93212   0.40549   1.000
    O92     O    0.41406   0.94277   0.41353   1.000
    O93     O    0.05645   0.52770   0.43667   1.000
    O94     O    0.55587   0.97200   0.43725   1.000
    O95     O    0.84918   0.60070   0.44181   1.000
    O96     O    0.89632   0.52440   0.49168   1.000
    O97     O    0.34978   0.89939   0.44493   1.000
    O98     O    0.39707   0.97578   0.49406   1.000
    O99     O    0.79405   0.65466   0.44734   1.000
    O100    O    0.73825   0.61454   0.44736   1.000
    O101    O    0.23854   0.88528   0.44821   1.000
    O102    O    0.29477   0.84524   0.44985   1.000
    O103    O    0.10317   0.47562   0.50519   1.000
    O104    O    0.60296   0.02414   0.50542   1.000
    O105    O    0.94290   0.47230   0.56026   1.000
    O106    O    0.70458   0.15481   0.54817   1.000
    O107    O    0.64986   0.10060   0.55355   1.000
    O108    O    0.44412   0.02793   0.56205   1.000
    O109    O    0.76112   0.11481   0.55117   1.000
    O110    O    0.26161   0.38550   0.54964   1.000
    O111    O    0.20577   0.34542   0.54964   1.000
    O112    O    0.15056   0.39939   0.55499   1.000
    O113    O    0.08530   0.44281   0.58515   1.000
    O114    O    0.58594   0.05725   0.58583   1.000
    O115    O    0.99662   0.43237   0.59225   1.000
    O116    O    0.49777   0.06792   0.59368   1.000
    O117    O    0.48304   0.54057   0.67987   1.000
    O118    O    0.52645   0.48607   0.69059   1.000
    O119    O    0.98224   0.96010   0.68002   1.000
    O120    O    0.02571   0.01451   0.69049   1.000
    O121    O    0.04904   0.02597   0.76849   1.000
    O122    O    0.55023   0.47438   0.76874   1.000
    O123    O    0.08204   0.96005   0.84354   1.000
    O124    O    0.58428   0.53950   0.84410   1.000
    O125    O    0.58467   0.44295   0.85288   1.000
    O126    O    0.12187   0.89891   0.90041   1.000
    O127    O    0.62396   0.60049   0.90103   1.000
    O128    O    0.62081   0.38378   0.91767   1.000
    O129    O    0.11295   0.90420   0.96343   1.000
    O130    O    0.61358   0.59598   0.96363   1.000
    O131    O    0.54840   0.54017   0.99467   1.000
    O132    O    0.04845   0.96027   0.99474   1.000
    O133    O    0.45905   0.55111   0.99836   1.000
    O134    O    0.95937   0.94914   0.99848   1.000
    N135    N    0.56246   0.10484   0.08549   1.000
    O136    O    0.45336   0.05700   0.24618   1.000
    O137    O    0.78028   0.05760   0.96606   1.000
    O138    O    0.76794   0.05506   0.01015   1.000
    N139    N    0.84864   0.29457   0.55780   1.000
    O140    O    0.88895   0.34777   0.56380   1.000
    O141    O    0.81002   0.24096   0.55398   1.000
    N142    N    0.06288   0.39507   0.08496   1.000
    O143    O    0.28109   0.44313   0.96580   1.000
    O144    O    0.26834   0.44572   0.00980   1.000
    O145    O    0.95347   0.44303   0.24478   1.000
    N146    N    0.74812   0.24311   0.00930   1.000
    O147    O    0.79344   0.19476   0.02903   1.000
    O148    O    0.70176   0.29061   0.98859   1.000
    N149    N    0.93646   0.60452   0.91348   1.000
    O150    O    0.71824   0.55666   0.03250   1.000
    O151    O    0.73121   0.55412   0.98890   1.000
    O152    O    0.04604   0.55674   0.75297   1.000
    N153    N    0.49948   0.50001   0.49905   1.000
    O154    O    0.50097   0.50477   0.56148   1.000
    O155    O    0.49799   0.49511   0.43665   1.000
    N156    N    0.43682   0.89418   0.91364   1.000
    O157    O    0.21865   0.94264   0.03263   1.000
    O158    O    0.23151   0.94533   0.98896   1.000
    O159    O    0.54624   0.94247   0.75315   1.000
    N160    N    0.22763   0.23265   0.99334   1.000
    O161    O    0.15643   0.14415   0.92326   1.000
    O162    O    0.28336   0.29289   0.02048   1.000
    N163    N    0.75163   0.74299   0.98957   1.000
    O164    O    0.70629   0.69465   0.96999   1.000
    O165    O    0.79802   0.79048   0.01013   1.000
    N166    N    0.35020   0.20566   0.55850   1.000
    O167    O    0.39027   0.15248   0.56481   1.000
    O168    O    0.31122   0.25930   0.55444   1.000
    N169    N    0.08833   0.09916   0.42600   1.000
    N170    N    0.64974   0.79432   0.43985   1.000
    O171    O    0.60967   0.84751   0.43386   1.000
    O172    O    0.68869   0.74071   0.44347   1.000
    N173    N    0.25086   0.75707   0.98931   1.000
    O174    O    0.20533   0.80532   0.96967   1.000
    O175    O    0.29736   0.70962   0.00991   1.000
    N176    N    0.98889   0.98905   0.50438   1.000
    O177    O    0.99317   0.99891   0.43937   1.000
    O178    O    0.99542   0.98994   0.56415   1.000
    N179    N    0.15017   0.70546   0.43995   1.000
    O180    O    0.18912   0.75909   0.44408   1.000
    O181    O    0.11019   0.65225   0.43366   1.000
loop_
    _geom_bond_atom_site_label_1
    _geom_bond_atom_site_label_2
    _geom_bond_distance
    _geom_bond_site_symmetry_2
    _ccdc_geom_bond_type
    Zr36   O67       0.63511  1_554   S
    Zr12   O67       0.63511      .   S
    Zr36   O68       1.06009      .   S
    Zr9    O68       1.06009  1_556   S
    Zr63   O69       0.63351      .   S
    Zr27   O69       0.63351      .   S
    Zr63   O70       1.04021      .   S
    Zr9    O70       1.04021  1_556   S
    Zr33   O71       0.63280      .   S
    Zr13   O71       0.63280      .   S
    Zr33   O72       1.04210      .   S
    Zr8    O72       1.04210  1_456   S
    Zr22   O73       0.63836      .   S
    Zr55   O73       0.63836      .   S
    Zr22   O74       0.63517      .   S
    Zr56   O74       0.63517  1_556   S
    Zr17   O75       0.63904      .   S
    Zr45   O75       0.63904      .   S
    Zr17   O76       0.63520      .   S
    Zr46   O76       0.63520  1_556   S
    Zr27   O77       0.64097      .   S
    Zr64   O77       0.64097      .   S
    Zr13   O78       0.64172      .   S
    Zr34   O78       0.64172      .   S
    Zr55   O79       1.00195      .   S
    Zr7    O79       1.00195      .   S
    Zr45   O80       1.00267      .   S
    Zr1    O80       1.00267      .   S
    Zr64   O81       0.99530      .   S
    Zr7    O81       0.99530      .   S
    Zr34   O82       0.99364      .   S
    Zr1    O82       0.99364  1_565   S
    Zr7    O83       0.97779      .   S
    Zr66   O83       0.97779      .   S
    Zr1    O84       0.97903      .   S
    Zr38   O84       0.97903      .   S
    Zr66   O85       0.65192      .   S
    Zr28   O85       0.65192      .   S
    Zr38   O86       0.65199      .   S
    Zr14   O86       0.65199  1_545   S
    Zr37   O87       0.62665      .   S
    Zr14   O87       0.62665  1_655   S
    Zr65   O88       0.62661      .   S
    Zr28   O88       0.62661      .   S
    Zr51   O89       0.63711  1_655   S
    Zr21   O89       0.63711      .   S
    Zr51   O90       1.03431      .   S
    Zr2    O90       1.03431      .   S
    Zr41   O91       0.63697      .   S
    Zr16   O91       0.63697      .   S
    Zr41   O92       1.03655      .   S
    Zr4    O92       1.03655      .   S
    Zr21   O93       0.64190      .   S
    Zr52   O93       0.64190      .   S
    Zr16   O94       0.64196      .   S
    Zr42   O94       0.64196  1_545   S
    Zr2    O95       1.00695      .   S
    Zr40   O95       1.00695      .   S
    Zr2    O96       1.00428      .   S
    Zr32   O96       1.00428      .   S
    Zr4    O97       1.00768      .   S
    Zr50   O97       1.00768      .   S
    Zr4    O98       1.00294      .   S
    Zr62   O98       1.00294      .   S
    Zr40   O99       0.64967      .   S
    Zr15   O99       0.64967      .   S
    Zr39   O100      0.62993      .   S
    Zr15   O100      0.62993      .   S
    Zr49   O101      0.63027      .   S
    Zr20   O101      0.63027      .   S
    Zr20   O102      0.64939      .   S
    Zr50   O102      0.64939      .   S
    Zr52   O103      1.00407      .   S
    Zr6    O103      1.00407      .   S
    Zr42   O104      1.00407      .   S
    Zr0    O104      1.00407      .   S
    Zr32   O105      0.64197      .   S
    Zr11   O105      0.64197      .   S
    Zr30   O106      0.64929      .   S
    Zr10   O106      0.64929      .   S
    Zr30   O107      1.00906      .   S
    Zr0    O107      1.00906      .   S
    Zr62   O108      0.64209  1_565   S
    Zr26   O108      0.64209      .   S
    Zr10   O109      0.63053      .   S
    Zr29   O109      0.63053      .   S
    Zr25   O110      0.62999      .   S
    Zr59   O110      0.62999      .   S
    Zr25   O111      0.64954      .   S
    Zr60   O111      0.64954      .   S
    Zr60   O112      1.00682      .   S
    Zr6    O112      1.00682      .   S
    Zr6    O113      1.03455      .   S
    Zr31   O113      1.03455      .   S
    Zr0    O114      1.03565      .   S
    Zr61   O114      1.03565      .   S
    Zr11   O115      0.63704      .   S
    Zr31   O115      0.63704  1_455   S
    Zr26   O116      0.63693      .   S
    Zr61   O116      0.63693      .   S
    Zr19   O117      0.62688      .   S
    Zr47   O117      0.62688      .   S
    Zr19   O118      0.65177      .   S
    Zr48   O118      0.65177      .   S
    Zr24   O119      0.62702  1_455   S
    Zr57   O119      0.62702      .   S
    Zr24   O120      0.65166  1_565   S
    Zr58   O120      0.65166      .   S
    Zr58   O121      0.98003      .   S
    Zr5    O121      0.98003      .   S
    Zr48   O122      0.97917      .   S
    Zr3    O122      0.97917      .   S
    Zr5    O123      0.99670  1_545   S
    Zr54   O123      0.99670      .   S
    Zr3    O124      0.99592      .   S
    Zr44   O124      0.99592      .   S
    Zr3    O125      1.00354      .   S
    Zr35   O125      1.00354      .   S
    Zr54   O126      0.64090      .   S
    Zr23   O126      0.64090      .   S
    Zr44   O127      0.64110      .   S
    Zr18   O127      0.64110      .   S
    Zr35   O128      0.63879      .   S
    Zr12   O128      0.63879      .   S
    Zr23   O129      0.63376      .   S
    Zr53   O129      0.63376      .   S
    Zr18   O130      0.63354      .   S
    Zr43   O130      0.63354      .   S
    Zr43   O131      1.04048      .   S
    Zr9    O131      1.04048      .   S
    Zr53   O132      1.03989      .   S
    Zr8    O132      1.03989  1_545   S
    Zr56   O133      1.06332      .   S
    Zr9    O133      1.06332      .   S
    Zr46   O134      1.06157      .   S
    Zr8    O134      1.06157  1_445   S
    N135   O136      3.70983      .   S
    Zr4    O136      4.25429  1_565   S
    N135   O137      4.55064  1_554   S
    Zr5    O137      5.54043  1_455   S
    N135   O138      3.92951      .   S
    Zr8    O138      3.90055  1_456   S
    N139   O140      1.07830      .   S
    Zr11   O140      1.82612      .   S
    N139   O141      1.07036      .   S
    Zr10   O141      1.81783      .   S
    N142   O143      4.55366  1_554   S
    Zr3    O143      5.54262      .   S
    N142   O144      3.92904      .   S
    Zr9    O144      3.88997  1_556   S
    N142   O145      3.70336  1_455   S
    Zr2    O145      4.24404      .   S
    N146   O147      1.07707      .   S
    Zr13   O147      1.82776      .   S
    N146   O148      1.08005  1_554   S
    Zr12   O148      1.83340      .   S
    N149   O150      4.55172  1_556   S
    Zr7    O150      5.53882      .   S
    N149   O151      3.92733      .   S
    Zr9    O151      3.88541      .   S
    N149   O152      3.71469  1_655   S
    Zr6    O152      4.25833      .   S
    N153   O154      1.07731      .   S
    Zr19   O154      1.82665      .   S
    N153   O155      1.07715      .   S
    Zr28   O155      1.82672      .   S
    N156   O157      4.55421  1_556   S
    Zr1    O157      5.54236  1_655   S
    N156   O158      3.93161      .   S
    Zr8    O158      3.89322  1_545   S
    N156   O159      3.71184      .   S
    Zr0    O159      4.25806  1_545   S
    N160   O161      2.05888      .   S
    Zr5    O161      3.06192      .   S
    N160   O162      1.34370  1_556   S
    Zr27   O162      2.09418      .   S
    N163   O164      1.07779      .   S
    Zr18   O164      1.82916      .   S
    N163   O165      1.08053  1_556   S
    Zr17   O165      1.83407      .   S
    N166   O167      1.07546      .   S
    Zr26   O167      1.82323      .   S
    N166   O168      1.07363      .   S
    Zr25   O168      1.82138      .   S
    N170   O171      1.07563      .   S
    Zr16   O171      1.82359      .   S
    N170   O172      1.07371      .   S
    Zr15   O172      1.82148      .   S
    N173   O174      1.07782      .   S
    Zr23   O174      1.82921      .   S
    N173   O175      1.08056  1_556   S
    Zr22   O175      1.83413      .   S
    N176   O177      1.15379      .   S
    Zr14   O177      1.90078  1_545   S
    N176   O178      1.01416      .   S
    Zr24   O178      1.76032  1_455   S
    N179   O180      1.07324      .   S
    Zr20   O180      1.82068      .   S
    N179   O181      1.07511      .   S
    Zr21   O181      1.82277      .   S
