# CIF file generated by openbabel 2.4.90, see http://openbabel.sf.net
data_I
_chemical_name_common ''
_cell_length_a 18.604
_cell_length_b 19.052
_cell_length_c 19.059
_cell_angle_alpha 70.331
_cell_angle_beta 70.885
_cell_angle_gamma 108.967
_space_group_name_H-M_alt 'P 1'
_space_group_name_Hall 'P 1'
loop_
    _symmetry_equiv_pos_as_xyz
    x,y,z
loop_
    _atom_site_label
    _atom_site_type_symbol
    _atom_site_fract_x
    _atom_site_fract_y
    _atom_site_fract_z
    _atom_site_occupancy
    Zn0     Zn   0.51392   0.06924   0.42196   1.000
    Zn1     Zn   0.93594   0.42207   0.50805   1.000
    Zn2     Zn   0.98605   0.42192   0.06920   1.000
    Zn3     Zn   0.56414   0.50791   0.42211   1.000
    Zn4     Zn   0.05530   0.06948   0.50919   1.000
    Zn5     Zn   0.55548   0.49089   0.93045   1.000
    Zn6     Zn   0.48605   0.93075   0.57805   1.000
    Zn7     Zn   0.06404   0.57793   0.49195   1.000
    Zn8     Zn   0.01393   0.57808   0.93081   1.000
    Zn9     Zn   0.43583   0.49208   0.57790   1.000
    Zn10    Zn   0.94468   0.93052   0.49081   1.000
    Zn11    Zn   0.44450   0.50911   0.06955   1.000
loop_
    _geom_bond_atom_site_label_1
    _geom_bond_atom_site_label_2
    _geom_bond_distance
    _geom_bond_site_symmetry_2
    _ccdc_geom_bond_type
    Zn11   Zn5       2.98539  1_554   S
    Zn0    Zn6       2.98281  1_545   S
    Zn1    Zn7       2.98310  1_655   S
    Zn2    Zn8       2.98252  1_654   S
    Zn3    Zn9       2.98203      .   S
    Zn4    Zn10      2.98691  1_445   S
