# CIF file generated by openbabel 2.4.90, see http://openbabel.sf.net
data_I
_chemical_name_common ''
_cell_length_a 18.604
_cell_length_b 19.052
_cell_length_c 19.059
_cell_angle_alpha 70.331
_cell_angle_beta 70.885
_cell_angle_gamma 108.967
_space_group_name_H-M_alt 'P 1'
_space_group_name_Hall 'P 1'
loop_
    _symmetry_equiv_pos_as_xyz
    x,y,z
loop_
    _atom_site_label
    _atom_site_type_symbol
    _atom_site_fract_x
    _atom_site_fract_y
    _atom_site_fract_z
    _atom_site_occupancy
    N0      N    0.42531   0.17607   0.64834   1.000
    N1      N    0.66829   0.41864   0.16291   1.000
    N2      N    0.25016   0.41800   0.41807   1.000
    N3      N    0.83145   0.16290   0.41873   1.000
    N4      N    0.25009   0.17594   0.17562   1.000
    N5      N    0.33169   0.58136   0.83703   1.000
    N6      N    0.74989   0.82369   0.82401   1.000
    N7      N    0.16821   0.83710   0.58125   1.000
    N8      N    0.57467   0.82358   0.35162   1.000
    N9      N    0.74982   0.58199   0.58191   1.000
    N10     N    0.92540   0.35194   0.82359   1.000
    N11     N    0.07458   0.64807   0.17604   1.000
    Zr12    Zr   0.99999   0.50000   0.00000   1.000
    Zr13    Zr   0.49999   0.50000   0.50000   1.000
    Zr14    Zr   0.99999   1.00000   0.50000   1.000
    Zr15    Zr   0.99999   0.50000   0.50000   1.000
    Zr16    Zr   0.49999   0.00000   0.50000   1.000
    Zr17    Zr   0.49999   0.50000   0.00000   1.000
    O18     O    0.04791   0.94920   0.52458   1.000
    O19     O    0.95166   0.05080   0.47541   1.000
    O20     O    0.92544   0.94848   0.59654   1.000
    O21     O    0.07454   0.05106   0.40337   1.000
    O22     O    0.07304   0.47372   0.47513   1.000
    O23     O    0.42703   0.47512   0.47376   1.000
    O24     O    0.40079   0.94917   0.52607   1.000
    O25     O    0.02220   0.54514   0.40351   1.000
    O26     O    0.02322   0.54520   0.05105   1.000
    O27     O    0.97778   0.45486   0.59640   1.000
    O28     O    0.92694   0.52628   0.52486   1.000
    O29     O    0.54824   0.47537   0.05080   1.000
    O30     O    0.57448   0.59644   0.94856   1.000
    O31     O    0.42550   0.40347   0.05098   1.000
    O32     O    0.45174   0.52463   0.94919   1.000
    O33     O    0.97676   0.45480   0.94850   1.000
    O34     O    0.57295   0.52488   0.52625   1.000
    O35     O    0.52223   0.59639   0.45477   1.000
    O36     O    0.52327   0.94851   0.45469   1.000
    O37     O    0.47775   0.40351   0.54522   1.000
    O38     O    0.90080   0.47391   0.05085   1.000
    O39     O    0.09918   0.52609   0.94915   1.000
    O40     O    0.59911   0.05083   0.47394   1.000
    O41     O    0.47671   0.05104   0.54531   1.000
loop_
    _geom_bond_atom_site_label_1
    _geom_bond_atom_site_label_2
    _geom_bond_distance
    _geom_bond_site_symmetry_2
    _ccdc_geom_bond_type
    Zr14   O18       1.57496  1_655   S
    N7     O18       3.72469      .   S
    Zr14   O19       1.58142  1_565   S
    N3     O19       3.72346      .   S
    Zr14   O20       1.58125      .   S
    N6     O20       3.72226      .   S
    Zr14   O21       1.58295  1_665   S
    N4     O21       3.72573      .   S
    N2     O22       3.72439      .   S
    Zr15   O22       1.58202  1_655   S
    N2     O23       3.72486      .   S
    Zr13   O23       1.58223      .   S
    N7     O24       3.72689      .   S
    Zr16   O24       1.58250  1_545   S
    N11    O25       3.72257      .   S
    Zr15   O25       1.58083  1_655   S
    N11    O26       3.72095      .   S
    Zr12   O26       1.57233  1_655   S
    Zr15   O27       1.57926      .   S
    N10    O27       3.71782      .   S
    Zr15   O28       1.58197      .   S
    N9     O28       3.72437      .   S
    Zr17   O29       1.58133      .   S
    N1     O29       3.72316      .   S
    Zr17   O30       1.58113  1_554   S
    N6     O30       3.72199      .   S
    Zr17   O31       1.58284      .   S
    N4     O31       3.72542      .   S
    Zr17   O32       1.58157  1_554   S
    N5     O32       3.72369      .   S
    N10    O33       3.71952      .   S
    Zr12   O33       1.58016  1_554   S
    N9     O34       3.72462      .   S
    Zr13   O34       1.58215      .   S
    N8     O35       3.71771      .   S
    Zr13   O35       1.57922      .   S
    N8     O36       3.71971      .   S
    Zr16   O36       1.58020  1_545   S
    Zr13   O37       1.58070      .   S
    N0     O37       3.72221      .   S
    Zr12   O38       1.58098      .   S
    N1     O38       3.72241      .   S
    Zr12   O39       1.58102  1_654   S
    N5     O39       3.72250      .   S
    Zr16   O40       1.58118      .   S
    N3     O40       3.72285      .   S
    Zr16   O41       1.57253      .   S
    N0     O41       3.72074      .   S
