# CIF file generated by openbabel 2.4.90, see http://openbabel.sf.net
data_I
_chemical_name_common ''
_cell_length_a 18.604
_cell_length_b 19.052
_cell_length_c 19.059
_cell_angle_alpha 70.331
_cell_angle_beta 70.885
_cell_angle_gamma 108.967
_space_group_name_H-M_alt 'P 1'
_space_group_name_Hall 'P 1'
loop_
    _symmetry_equiv_pos_as_xyz
    x,y,z
loop_
    _atom_site_label
    _atom_site_type_symbol
    _atom_site_fract_x
    _atom_site_fract_y
    _atom_site_fract_z
    _atom_site_occupancy
    N0      N    0.33915   0.59212   0.21378   1.000
    N1      N    0.42531   0.17607   0.64834   1.000
    N2      N    0.66829   0.41864   0.16291   1.000
    N3      N    0.94928   0.19675   0.21168   1.000
    N4      N    0.25016   0.41800   0.41807   1.000
    N5      N    0.75346   0.59144   0.19630   1.000
    N6      N    0.83145   0.16290   0.41873   1.000
    N7      N    0.25009   0.17594   0.17562   1.000
    N8      N    0.16053   0.21348   0.59220   1.000
    N9      N    0.55057   0.21163   0.19683   1.000
    N10     N    0.33169   0.58136   0.83703   1.000
    N11     N    0.74989   0.82369   0.82401   1.000
    N12     N    0.66083   0.40787   0.78621   1.000
    N13     N    0.16821   0.83710   0.58125   1.000
    N14     N    0.57467   0.82358   0.35162   1.000
    N15     N    0.44941   0.78837   0.80317   1.000
    N16     N    0.74982   0.58199   0.58191   1.000
    N17     N    0.92540   0.35194   0.82359   1.000
    N18     N    0.25312   0.80352   0.40849   1.000
    N19     N    0.74686   0.19648   0.59151   1.000
    N20     N    0.07458   0.64807   0.17604   1.000
    N21     N    0.05070   0.80325   0.78830   1.000
    N22     N    0.24652   0.40856   0.80370   1.000
    N23     N    0.83945   0.78652   0.40774   1.000
    Zr24    Zr   0.99999   0.50000   0.00000   1.000
    O25     O    0.90385   0.49086   0.03536   1.000
    O26     O    0.97990   0.47200   0.93317   1.000
    O27     O    0.01440   0.60762   0.92049   1.000
    O28     O    0.10222   0.54304   0.93366   1.000
    O29     O    0.02635   0.56240   0.03536   1.000
    O30     O    0.97363   0.43760   0.96382   1.000
    O31     O    0.89776   0.45696   0.06634   1.000
    O32     O    0.02008   0.52800   0.06674   1.000
    O33     O    0.98558   0.39238   0.07950   1.000
    O34     O    0.09613   0.50914   0.96463   1.000
    Zr35    Zr   0.49999   0.50000   0.50000   1.000
    O36     O    0.55903   0.52364   0.54314   1.000
    O37     O    0.40650   0.47214   0.60775   1.000
    O38     O    0.50814   0.59473   0.47192   1.000
    O39     O    0.41311   0.47388   0.49065   1.000
    O40     O    0.46366   0.40185   0.56237   1.000
    O41     O    0.58686   0.52612   0.50935   1.000
    O42     O    0.59347   0.52785   0.39225   1.000
    O43     O    0.53631   0.59805   0.43762   1.000
    O44     O    0.44094   0.47635   0.45686   1.000
    O45     O    0.49183   0.40517   0.52807   1.000
    Zr46    Zr   0.99999   1.00000   0.50000   1.000
    O47     O    0.03513   0.93365   0.52307   1.000
    O48     O    0.93507   0.91997   0.47150   1.000
    O49     O    0.91324   0.93309   0.59462   1.000
    O50     O    0.93920   0.03525   0.47390   1.000
    O51     O    0.06233   0.03530   0.40145   1.000
    O52     O    0.06070   0.96475   0.52610   1.000
    O53     O    0.08674   0.06681   0.40529   1.000
    O54     O    0.06491   0.08003   0.52849   1.000
    O55     O    0.93765   0.96387   0.59846   1.000
    O56     O    0.96413   0.06635   0.47692   1.000
    Zr57    Zr   0.99999   0.50000   0.50000   1.000
    O58     O    0.08693   0.49062   0.47386   1.000
    O59     O    0.99183   0.47202   0.59471   1.000
    O60     O    0.03626   0.56229   0.40182   1.000
    O61     O    0.94082   0.54319   0.52360   1.000
    O62     O    0.09336   0.60769   0.47207   1.000
    O63     O    0.96372   0.43771   0.59809   1.000
    O64     O    0.00815   0.52798   0.40519   1.000
    O65     O    0.90662   0.39231   0.52792   1.000
    O66     O    0.05916   0.45681   0.47639   1.000
    O67     O    0.91305   0.50937   0.52611   1.000
    Zr68    Zr   0.49999   0.00000   0.50000   1.000
    O69     O    0.39775   0.93368   0.54302   1.000
    O70     O    0.48562   0.92049   0.60759   1.000
    O71     O    0.59606   0.03533   0.49088   1.000
    O72     O    0.47358   0.03536   0.56250   1.000
    O73     O    0.52014   0.93319   0.47188   1.000
    O74     O    0.51436   0.07951   0.39242   1.000
    O75     O    0.40383   0.96467   0.50912   1.000
    O76     O    0.52640   0.96384   0.43750   1.000
    O77     O    0.60215   0.06632   0.45699   1.000
    O78     O    0.47984   0.06672   0.52811   1.000
    Zr79    Zr   0.49999   0.50000   0.00000   1.000
    O80     O    0.53573   0.47686   0.06636   1.000
    O81     O    0.43494   0.52845   0.08015   1.000
    O82     O    0.56223   0.59834   0.96397   1.000
    O83     O    0.43923   0.52612   0.96475   1.000
    O84     O    0.41325   0.40537   0.06675   1.000
    O85     O    0.43775   0.40156   0.03521   1.000
    O86     O    0.56504   0.47155   0.91985   1.000
    O87     O    0.56075   0.47388   0.03523   1.000
    O88     O    0.46425   0.52314   0.93362   1.000
    O89     O    0.58673   0.59454   0.93315   1.000
loop_
    _geom_bond_atom_site_label_1
    _geom_bond_atom_site_label_2
    _geom_bond_distance
    _geom_bond_site_symmetry_2
    _ccdc_geom_bond_type
    Zr24   O25       1.61643      .   S
    N2     O25       3.72277      .   S
    Zr24   O26       1.63896  1_554   S
    N17    O26       3.70385      .   S
    Zr24   O27       1.96407  1_654   S
    N21    O27       3.40937      .   S
    Zr24   O28       1.61298  1_654   S
    N10    O28       3.75091      .   S
    Zr24   O29       1.57630  1_655   S
    N20    O29       3.77193      .   S
    Zr24   O30       1.58864  1_554   S
    N17    O30       3.76395      .   S
    Zr24   O31       1.61290      .   S
    N2     O31       3.75086      .   S
    Zr24   O32       1.63723  1_655   S
    N20    O32       3.69921      .   S
    Zr24   O33       1.96395      .   S
    N3     O33       3.40925      .   S
    Zr24   O34       1.61643  1_654   S
    N10    O34       3.72291      .   S
    Zr35   O36       1.61392      .   S
    N16    O36       3.75303      .   S
    Zr35   O37       1.96229      .   S
    N22    O37       3.40652      .   S
    Zr35   O38       1.63883      .   S
    N14    O38       3.70160      .   S
    Zr35   O39       1.61773      .   S
    N4     O39       3.72527      .   S
    Zr35   O40       1.58815      .   S
    N1     O40       3.76728      .   S
    Zr35   O41       1.61767      .   S
    N16    O41       3.72500      .   S
    Zr35   O42       1.96238      .   S
    N5     O42       3.40662      .   S
    Zr35   O43       1.58688      .   S
    N14    O43       3.76257      .   S
    Zr35   O44       1.61404      .   S
    N4     O44       3.75323      .   S
    Zr35   O45       1.64045      .   S
    N1     O45       3.70586      .   S
    Zr46   O47       1.60313  1_655   S
    N13    O47       3.75871      .   S
    Zr46   O48       1.96697      .   S
    N23    O48       3.41472      .   S
    Zr46   O49       1.64033      .   S
    N11    O49       3.70683      .   S
    Zr46   O50       1.61702  1_565   S
    N6     O50       3.72377      .   S
    Zr46   O51       1.59418  1_665   S
    N7     O51       3.76990      .   S
    Zr46   O52       1.61559  1_655   S
    N13    O52       3.71993      .   S
    Zr46   O53       1.64110  1_665   S
    N7     O53       3.71122      .   S
    Zr46   O54       1.96674  1_665   S
    N8     O54       3.41403      .   S
    Zr46   O55       1.58951      .   S
    N11    O55       3.76649      .   S
    Zr46   O56       1.61328  1_565   S
    N6     O56       3.75199      .   S
    Zr57   O58       1.61745  1_655   S
    N4     O58       3.72476      .   S
    Zr57   O59       1.63887      .   S
    N17    O59       3.70172      .   S
    Zr57   O60       1.58834  1_655   S
    N20    O60       3.76761      .   S
    Zr57   O61       1.61389      .   S
    N16    O61       3.75279      .   S
    Zr57   O62       1.96287  1_655   S
    N18    O62       3.40750      .   S
    Zr57   O63       1.58695      .   S
    N17    O63       3.76269      .   S
    Zr57   O64       1.64056  1_655   S
    N20    O64       3.70626      .   S
    Zr57   O65       1.96288      .   S
    N19    O65       3.40754      .   S
    Zr57   O66       1.61391  1_655   S
    N4     O66       3.75281      .   S
    Zr57   O67       1.61744      .   S
    N16    O67       3.72478      .   S
    Zr68   O69       1.61420  1_545   S
    N13    O69       3.75552      .   S
    Zr68   O70       1.96396  1_545   S
    N15    O70       3.40919      .   S
    Zr68   O71       1.61668      .   S
    N6     O71       3.72318      .   S
    Zr68   O72       1.57672      .   S
    N1     O72       3.77153      .   S
    Zr68   O73       1.63891  1_545   S
    N14    O73       3.70406      .   S
    Zr68   O74       1.96396      .   S
    N9     O74       3.40921      .   S
    Zr68   O75       1.61811  1_545   S
    N13    O75       3.72703      .   S
    Zr68   O76       1.58879  1_545   S
    N14    O76       3.76412      .   S
    Zr68   O77       1.61306      .   S
    N6     O77       3.75133      .   S
    Zr68   O78       1.63715      .   S
    N1     O78       3.69919      .   S
    Zr79   O80       1.61313      .   S
    N2     O80       3.75161      .   S
    Zr79   O81       1.96591      .   S
    N0     O81       3.41270      .   S
    Zr79   O82       1.58922  1_554   S
    N11    O82       3.76626      .   S
    Zr79   O83       1.61709  1_554   S
    N10    O83       3.72416      .   S
    Zr79   O84       1.64109      .   S
    N7     O84       3.71085      .   S
    Zr79   O85       1.59388      .   S
    N7     O85       3.76961      .   S
    Zr79   O86       1.96595  1_554   S
    N12    O86       3.41284      .   S
    Zr79   O87       1.61694      .   S
    N2     O87       3.72353      .   S
    Zr79   O88       1.61346  1_554   S
    N10    O88       3.75205      .   S
    Zr79   O89       1.64033  1_554   S
    N11    O89       3.70649      .   S
