# CIF file generated by openbabel 2.4.90, see http://openbabel.sf.net
data_I
_chemical_name_common ''
_cell_length_a 8.746
_cell_length_b 12.063
_cell_length_c 24.0786
_cell_angle_alpha 85.582
_cell_angle_beta 79.8119
_cell_angle_gamma 89.886
_space_group_name_H-M_alt 'P 1'
_space_group_name_Hall 'P 1'
loop_
    _symmetry_equiv_pos_as_xyz
    x,y,z
loop_
    _atom_site_label
    _atom_site_type_symbol
    _atom_site_fract_x
    _atom_site_fract_y
    _atom_site_fract_z
    _atom_site_occupancy
    C0      C    0.70265   0.63955   0.67668   1.000
    C1      C    0.14003   0.58262   0.77642   1.000
    C2      C    0.29096   0.36457   0.32312   1.000
    C3      C    0.85395   0.41853   0.22332   1.000
    C4      C    0.36290   0.86476   0.32326   1.000
    C5      C    0.89543   0.92642   0.22540   1.000
    C6      C    0.63046   0.13939   0.67669   1.000
    C7      C    0.09700   0.07822   0.77527   1.000
