# CIF file generated by openbabel 2.4.90, see http://openbabel.sf.net
data_I
_chemical_name_common ''
_cell_length_a 8.746
_cell_length_b 12.063
_cell_length_c 24.0786
_cell_angle_alpha 85.582
_cell_angle_beta 79.8119
_cell_angle_gamma 89.886
_space_group_name_H-M_alt 'P 1'
_space_group_name_Hall 'P 1'
loop_
    _symmetry_equiv_pos_as_xyz
    x,y,z
loop_
    _atom_site_label
    _atom_site_type_symbol
    _atom_site_fract_x
    _atom_site_fract_y
    _atom_site_fract_z
    _atom_site_occupancy
    Zr0     Zr   0.80889   0.49266   0.79256   1.000
    Zr1     Zr   0.58095   0.00721   0.20389   1.000
    Zr2     Zr   0.18415   0.50917   0.20715   1.000
    Zr3     Zr   0.41171   0.00000   0.79638   1.000
    Zr4     Zr   0.33663   0.01437   0.66478   1.000
    Zr5     Zr   0.65618   0.98935   0.33553   1.000
    Zr6     Zr   0.98430   0.49263   0.33523   1.000
    Zr7     Zr   0.00942   0.51136   0.66422   1.000
    Zr8     Zr   0.70265   0.63955   0.67668   1.000
    Zr9     Zr   0.14003   0.58262   0.77642   1.000
    Zr10    Zr   0.29096   0.36457   0.32312   1.000
    Zr11    Zr   0.85395   0.41853   0.22332   1.000
    Zr12    Zr   0.36290   0.86476   0.32326   1.000
    Zr13    Zr   0.89543   0.92642   0.22540   1.000
    Zr14    Zr   0.63046   0.13939   0.67669   1.000
    Zr15    Zr   0.09700   0.07822   0.77527   1.000
    Zr16    Zr   0.73077   0.54070   0.69593   1.000
    Zr17    Zr   0.79668   0.70340   0.64350   1.000
    Zr18    Zr   0.17056   0.50455   0.80989   1.000
    Zr19    Zr   0.00479   0.61108   0.76600   1.000
    Zr20    Zr   0.26326   0.46332   0.30360   1.000
    Zr21    Zr   0.19666   0.30120   0.35647   1.000
    Zr22    Zr   0.82368   0.49626   0.18960   1.000
    Zr23    Zr   0.98900   0.39008   0.23392   1.000
    Zr24    Zr   0.41033   0.96303   0.30358   1.000
    Zr25    Zr   0.42493   0.80062   0.35639   1.000
    Zr26    Zr   0.95437   0.01389   0.19906   1.000
    Zr27    Zr   0.75506   0.88962   0.22901   1.000
    Zr28    Zr   0.58275   0.04120   0.69642   1.000
    Zr29    Zr   0.56876   0.20360   0.64350   1.000
    Zr30    Zr   0.03677   0.00000   0.80282   1.000
    Zr31    Zr   0.23842   0.11303   0.77062   1.000
    O32     O    0.83882   0.45739   0.20646   1.000
    O33     O    0.92490   0.97015   0.21223   1.000
    O34     O    0.66801   0.94842   0.21645   1.000
    O35     O    0.61857   0.99828   0.26971   1.000
    O36     O    0.08658   0.44962   0.22053   1.000
    O37     O    0.08423   0.50090   0.27119   1.000
    O38     O    0.92148   0.40430   0.22862   1.000
    O39     O    0.82525   0.90802   0.22721   1.000
    O40     O    0.38662   0.91389   0.31342   1.000
    O41     O    0.53326   0.97619   0.31956   1.000
    O42     O    0.27711   0.41394   0.31336   1.000
    O43     O    0.12378   0.47797   0.31942   1.000
    O44     O    0.24381   0.33288   0.33979   1.000
    O45     O    0.39392   0.83269   0.33983   1.000
    O46     O    0.74967   0.67148   0.66009   1.000
    O47     O    0.59961   0.17149   0.66010   1.000
    O48     O    0.87010   0.52603   0.68008   1.000
    O49     O    0.90915   0.50201   0.72839   1.000
    O50     O    0.45969   0.02779   0.68060   1.000
    O51     O    0.37417   0.00718   0.73058   1.000
    O52     O    0.71671   0.59013   0.68631   1.000
    O53     O    0.60661   0.09030   0.68655   1.000
    O54     O    0.07241   0.59685   0.77121   1.000
    O55     O    0.90684   0.55187   0.77928   1.000
    O56     O    0.16771   0.09563   0.77294   1.000
    O57     O    0.32506   0.05651   0.78350   1.000
    O58     O    0.06689   0.03911   0.78905   1.000
    O59     O    0.15529   0.54359   0.79316   1.000
    O60     O    0.22371   0.48624   0.25538   1.000
    N61     N    0.49632   0.50145   0.00005   1.000
    O62     O    0.51633   0.29529   0.09475   1.000
    O63     O    0.47616   0.70867   0.90540   1.000
    N64     N    0.99681   0.50136   0.50002   1.000
    O65     O    0.85745   0.72100   0.43259   1.000
    O66     O    0.13586   0.28199   0.56755   1.000
    N67     N    0.49682   0.00209   0.49976   1.000
    O68     O    0.69634   0.22299   0.43271   1.000
    O69     O    0.29728   0.78113   0.56677   1.000
    N70     N    0.49628   0.00157   0.00007   1.000
    O71     O    0.62450   0.20614   0.90426   1.000
    O72     O    0.36818   0.79642   0.09573   1.000
    N73     N    0.08226   0.78296   0.28946   1.000
    O74     O    0.18608   0.81386   0.30175   1.000
    O75     O    0.01359   0.83621   0.26570   1.000
    O76     O    0.04612   0.68309   0.30490   1.000
    N77     N    0.60332   0.27963   0.28893   1.000
    O78     O    0.48801   0.31173   0.30132   1.000
    O79     O    0.69562   0.33133   0.26464   1.000
    O80     O    0.62404   0.17981   0.30475   1.000
    N81     N    0.91122   0.22112   0.71049   1.000
    O82     O    0.97951   0.16808   0.73452   1.000
    O83     O    0.94756   0.32091   0.69484   1.000
    O84     O    0.80736   0.19023   0.69821   1.000
    N85     N    0.38974   0.72314   0.71099   1.000
    O86     O    0.29781   0.67077   0.73522   1.000
    O87     O    0.36877   0.82325   0.69530   1.000
    O88     O    0.50526   0.69157   0.69856   1.000
loop_
    _geom_bond_atom_site_label_1
    _geom_bond_atom_site_label_2
    _geom_bond_distance
    _geom_bond_site_symmetry_2
    _ccdc_geom_bond_type
    Zr22   O32       0.62577      .   S
    Zr11   O32       0.62577      .   S
    Zr26   O33       0.62547  1_545   S
    Zr13   O33       0.62547      .   S
    Zr1    O34       1.10477  1_545   S
    Zr27   O34       1.10477      .   S
    Zr1    O35       1.67022  1_545   S
    Zr5    O35       1.67022      .   S
    Zr2    O36       1.10342      .   S
    Zr23   O36       1.10342  1_655   S
    Zr2    O37       1.62838      .   S
    Zr6    O37       1.62838  1_655   S
    Zr11   O38       0.64607      .   S
    Zr23   O38       0.64607      .   S
    Zr13   O39       0.64617      .   S
    Zr27   O39       0.64617      .   S
    Zr24   O40       0.64182      .   S
    Zr12   O40       0.64182      .   S
    Zr24   O41       1.21877      .   S
    Zr5    O41       1.21877      .   S
    Zr20   O42       0.64252      .   S
    Zr10   O42       0.64252      .   S
    Zr20   O43       1.22864      .   S
    Zr6    O43       1.22864  1_655   S
    Zr10   O44       0.62910      .   S
    Zr21   O44       0.62910      .   S
    Zr12   O45       0.62954      .   S
    Zr25   O45       0.62954      .   S
    Zr17   O46       0.62912      .   S
    Zr8    O46       0.62912      .   S
    Zr29   O47       0.62953      .   S
    Zr14   O47       0.62953      .   S
    Zr7    O48       1.22753  1_455   S
    Zr16   O48       1.22753      .   S
    Zr7    O49       1.63195  1_455   S
    Zr0    O49       1.63195      .   S
    Zr4    O50       1.21858      .   S
    Zr28   O50       1.21858      .   S
    Zr4    O51       1.66978      .   S
    Zr3    O51       1.66978      .   S
    Zr8    O52       0.64251      .   S
    Zr16   O52       0.64251      .   S
    Zr14   O53       0.64182      .   S
    Zr28   O53       0.64182      .   S
    Zr19   O54       0.64613      .   S
    Zr9    O54       0.64613      .   S
    Zr19   O55       1.10301  1_455   S
    Zr0    O55       1.10301      .   S
    Zr31   O56       0.64507      .   S
    Zr15   O56       0.64507      .   S
    Zr31   O57       1.08795      .   S
    Zr3    O57       1.08795      .   S
    Zr15   O58       0.58949      .   S
    Zr30   O58       0.58949      .   S
    Zr9    O59       0.62572      .   S
    Zr18   O59       0.62572      .   S
    Zr20   O60       1.27946      .   S
    Zr2    O60       1.27946      .   S
    N61    O62       3.26801      .   S
    Zr1    O62       4.29102      .   S
    N61    O63       3.27664  1_554   S
    Zr3    O63       4.31902  1_545   S
    N64    O65       3.34153      .   S
    Zr5    O65       4.39397      .   S
    N64    O66       3.33900  1_655   S
    Zr4    O66       4.38797      .   S
    N67    O68       3.33323      .   S
    Zr6    O68       4.38148      .   S
    N67    O69       3.33371  1_545   S
    Zr7    O69       4.38202      .   S
    N70    O71       3.29964  1_554   S
    Zr0    O71       4.34002      .   S
    N70    O72       3.30236  1_545   S
    Zr2    O72       4.34245      .   S
    N73    O74       1.07895      .   S
    Zr12   O74       1.83666      .   S
    N73    O75       1.07902      .   S
    Zr13   O75       1.83876  1_655   S
    N73    O76       1.25713      .   S
    Zr6    O76       2.38981  1_655   S
    N77    O78       1.07976      .   S
    Zr10   O78       1.83825      .   S
    N77    O79       1.07783      .   S
    Zr11   O79       1.83596      .   S
    N77    O80       1.25727      .   S
    Zr5    O80       2.39074  1_565   S
    N81    O82       1.07920      .   S
    Zr15   O82       1.83903  1_455   S
    N81    O83       1.25748      .   S
    Zr7    O83       2.39097  1_455   S
    N81    O84       1.07915      .   S
    Zr14   O84       1.83712      .   S
    N85    O86       1.07940      .   S
    Zr9    O86       1.83804      .   S
    N85    O87       1.26026      .   S
    Zr4    O87       2.39656  1_545   S
    N85    O88       1.07901      .   S
    Zr8    O88       1.83760      .   S
