# CIF file generated by openbabel 2.4.90, see http://openbabel.sf.net
data_I
_chemical_name_common ''
_cell_length_a 23.047
_cell_length_b 15.562
_cell_length_c 16.219
_cell_angle_alpha 89.978
_cell_angle_beta 89.974
_cell_angle_gamma 90.074
_space_group_name_H-M_alt 'P 1'
_space_group_name_Hall 'P 1'
loop_
    _symmetry_equiv_pos_as_xyz
    x,y,z
loop_
    _atom_site_label
    _atom_site_type_symbol
    _atom_site_fract_x
    _atom_site_fract_y
    _atom_site_fract_z
    _atom_site_occupancy
    Zr0     Zr   0.13189   0.76822   0.43366   1.000
    Zr1     Zr   0.63170   0.76740   0.43370   1.000
    Zr2     Zr   0.12563   0.79959   0.05070   1.000
    Zr3     Zr   0.62564   0.79949   0.05085   1.000
    Zr4     Zr   0.11829   0.23270   0.93364   1.000
    Zr5     Zr   0.61830   0.23254   0.93373   1.000
    Zr6     Zr   0.12460   0.20078   0.55068   1.000
    Zr7     Zr   0.62451   0.20049   0.55080   1.000
    Zr8     Zr   0.36810   0.26825   0.06636   1.000
    Zr9     Zr   0.86814   0.26821   0.06600   1.000
    Zr10    Zr   0.37477   0.29978   0.44920   1.000
    Zr11    Zr   0.87455   0.29910   0.44943   1.000
    Zr12    Zr   0.38172   0.73272   0.56626   1.000
    Zr13    Zr   0.88173   0.73169   0.56628   1.000
    Zr14    Zr   0.37562   0.70081   0.94917   1.000
    Zr15    Zr   0.87563   0.70081   0.94928   1.000
    N16     N    0.07345   0.95590   0.72271   1.000
    O17     O    0.09785   0.04038   0.63434   1.000
    O18     O    0.10328   0.89375   0.59194   1.000
    O19     O    0.09941   0.88248   0.85223   1.000
    N20     N    0.12084   0.22017   0.74618   1.000
    N21     N    0.57303   0.95570   0.72285   1.000
    O22     O    0.59920   0.88234   0.85238   1.000
    O23     O    0.59752   0.04012   0.63443   1.000
    O24     O    0.60254   0.89318   0.59222   1.000
    N25     N    0.17694   0.04442   0.22269   1.000
    O26     O    0.15252   0.95997   0.13429   1.000
    O27     O    0.14744   0.10694   0.09214   1.000
    O28     O    0.15084   0.11777   0.35225   1.000
    N29     N    0.92657   0.45586   0.77749   1.000
    O30     O    0.90222   0.54038   0.86577   1.000
    O31     O    0.89671   0.39370   0.90804   1.000
    O32     O    0.90065   0.38235   0.64790   1.000
    N33     N    0.32304   0.54460   0.27730   1.000
    O34     O    0.35257   0.60704   0.40782   1.000
    O35     O    0.34766   0.46012   0.36565   1.000
    O36     O    0.34919   0.61789   0.14769   1.000
    N37     N    0.74960   0.74522   0.00079   1.000
    N38     N    0.67693   0.04427   0.22277   1.000
    O39     O    0.64742   0.10677   0.09219   1.000
    O40     O    0.65252   0.95983   0.13440   1.000
    O41     O    0.65083   0.11765   0.35233   1.000
    N42     N    0.42658   0.45576   0.77753   1.000
    O43     O    0.39671   0.39367   0.90811   1.000
    O44     O    0.40221   0.54034   0.86574   1.000
    O45     O    0.40072   0.38247   0.64782   1.000
    N46     N    0.75608   0.74917   0.50283   1.000
    N47     N    0.49386   0.25085   0.00287   1.000
    N48     N    0.25616   0.75002   0.50287   1.000
    N49     N    0.75062   0.24455   0.49926   1.000
    N50     N    0.99288   0.25085   0.00287   1.000
    N51     N    0.25067   0.24527   0.49888   1.000
    N52     N    0.24958   0.74524   0.00075   1.000
    N53     N    0.82347   0.54424   0.27753   1.000
    O54     O    0.84787   0.45963   0.36584   1.000
    O55     O    0.84942   0.61769   0.14787   1.000
    O56     O    0.85330   0.60628   0.40815   1.000
    N57     N    0.62930   0.77996   0.24629   1.000
    N58     N    0.62078   0.21997   0.74628   1.000
    N59     N    0.49959   0.75522   0.99925   1.000
    N60     N    0.00055   0.25475   0.50112   1.000
    N61     N    0.74385   0.25000   0.99713   1.000
    N62     N    0.87098   0.28001   0.25386   1.000
    N63     N    0.24383   0.25003   0.99708   1.000
    N64     N    0.37093   0.28023   0.25379   1.000
    N65     N    0.50613   0.74995   0.49698   1.000
    N66     N    0.12924   0.78015   0.24618   1.000
    N67     N    0.37924   0.72018   0.75367   1.000
    N68     N    0.00616   0.75084   0.49718   1.000
    N69     N    0.99959   0.75532   0.99921   1.000
    N70     N    0.87884   0.71995   0.75373   1.000
    N71     N    0.50075   0.25564   0.50087   1.000
    O72     O    0.95805   0.26943   0.48124   1.000
    O73     O    0.87250   0.28619   0.32014   1.000
    O74     O    0.79253   0.26172   0.47962   1.000
    O75     O    0.04207   0.77003   0.01908   1.000
    O76     O    0.12769   0.78642   0.17993   1.000
    O77     O    0.20767   0.76232   0.02044   1.000
    O78     O    0.61940   0.22435   0.81044   1.000
    O79     O    0.53629   0.24651   0.97879   1.000
    O80     O    0.70116   0.24609   0.97445   1.000
    O81     O    0.38059   0.72455   0.68951   1.000
    O82     O    0.46373   0.74608   0.52111   1.000
    O83     O    0.29886   0.74614   0.52554   1.000
    O84     O    0.62236   0.21365   0.68002   1.000
    O85     O    0.70811   0.22990   0.51915   1.000
    O86     O    0.54261   0.23827   0.52052   1.000
    O87     O    0.37771   0.71389   0.81993   1.000
    O88     O    0.12245   0.21387   0.67993   1.000
    O89     O    0.04250   0.23779   0.52064   1.000
    O90     O    0.20815   0.23056   0.51880   1.000
    O91     O    0.36947   0.27603   0.18963   1.000
    O92     O    0.28620   0.25415   0.02123   1.000
    O93     O    0.45109   0.25494   0.02553   1.000
    O94     O    0.95768   0.73816   0.97955   1.000
    O95     O    0.79209   0.73052   0.98089   1.000
    O96     O    0.87748   0.71377   0.82001   1.000
    O97     O    0.54208   0.76991   0.01917   1.000
    O98     O    0.62775   0.78629   0.18005   1.000
    O99     O    0.70769   0.76228   0.02050   1.000
    O100    O    0.37254   0.28655   0.32002   1.000
    O101    O    0.29264   0.26238   0.47930   1.000
    O102    O    0.45829   0.27035   0.48097   1.000
    O103    O    0.96374   0.74629   0.52126   1.000
    O104    O    0.79881   0.74507   0.52547   1.000
    O105    O    0.88024   0.72407   0.68955   1.000
    O106    O    0.54883   0.75385   0.47434   1.000
    O107    O    0.63065   0.77559   0.31044   1.000
    O108    O    0.71367   0.75348   0.47875   1.000
    O109    O    0.04892   0.75491   0.47449   1.000
    O110    O    0.13065   0.77597   0.31035   1.000
    O111    O    0.21380   0.75415   0.47874   1.000
    O112    O    0.20114   0.24616   0.97439   1.000
    O113    O    0.11943   0.22454   0.81035   1.000
    O114    O    0.03579   0.24657   0.97876   1.000
    O115    O    0.45768   0.73810   0.97954   1.000
    O116    O    0.29207   0.73053   0.98083   1.000
    O117    O    0.86953   0.27587   0.18959   1.000
    O118    O    0.95062   0.25492   0.02544   1.000
    O119    O    0.78622   0.25412   0.02118   1.000
loop_
    _geom_bond_atom_site_label_1
    _geom_bond_atom_site_label_2
    _geom_bond_distance
    _geom_bond_site_symmetry_2
    _ccdc_geom_bond_type
    N16    O17       2.02368  1_565   S
    Zr6    O17       2.90587      .   S
    N16    O18       2.43062      .   S
    Zr0    O18       3.29349      .   S
    N16    O19       2.46523      .   S
    Zr2    O19       3.52019  1_554   S
    N21    O22       2.46620      .   S
    Zr3    O22       3.52076  1_554   S
    N21    O23       2.02408  1_565   S
    Zr7    O23       2.90647      .   S
    N21    O24       2.42893      .   S
    Zr1    O24       3.30139      .   S
    N25    O26       2.02489  1_545   S
    Zr2    O26       2.90704      .   S
    N25    O27       2.42783      .   S
    Zr4    O27       3.30014  1_556   S
    N25    O28       2.46626      .   S
    Zr6    O28       3.52074      .   S
    N29    O30       2.02427      .   S
    Zr15   O30       2.90677      .   S
    N29    O31       2.42638      .   S
    Zr9    O31       3.28676  1_554   S
    N29    O32       2.46666      .   S
    Zr11   O32       3.52208      .   S
    N33    O34       2.42689      .   S
    Zr12   O34       3.29878      .   S
    N33    O35       2.02608      .   S
    Zr10   O35       2.90773      .   S
    N33    O36       2.46532      .   S
    Zr14   O36       3.52082  1_556   S
    N38    O39       2.42800      .   S
    Zr5    O39       3.29971  1_556   S
    N38    O40       2.02427  1_545   S
    Zr3    O40       2.90616      .   S
    N38    O41       2.46648      .   S
    Zr7    O41       3.52069      .   S
    N42    O43       2.42655      .   S
    Zr8    O43       3.28989  1_554   S
    N42    O44       2.02418      .   S
    Zr14   O44       2.90666      .   S
    N42    O45       2.46648      .   S
    Zr10   O45       3.52045      .   S
    N53    O54       2.02540      .   S
    Zr11   O54       2.90856      .   S
    N53    O55       2.46617      .   S
    Zr15   O55       3.52219  1_556   S
    N53    O56       2.42777      .   S
    Zr13   O56       3.28901      .   S
    Zr11   O72       2.04596      .   S
    N60    O72       1.05644  1_455   S
    Zr11   O73       2.10713      .   S
    N62    O73       1.07987      .   S
    Zr11   O74       2.03665      .   S
    N49    O74       1.05110      .   S
    Zr2    O75       2.04490      .   S
    N69    O75       1.05583  1_656   S
    Zr2    O76       2.10638      .   S
    N66    O76       1.07959      .   S
    Zr2    O77       2.03834      .   S
    N52    O77       1.05167      .   S
    Zr5    O78       2.00386      .   S
    N58    O78       1.04345      .   S
    Zr5    O79       2.03814      .   S
    N47    O79       1.05503  1_554   S
    Zr5    O80       2.03161      .   S
    N61    O80       1.05221      .   S
    Zr12   O81       2.00317      .   S
    N67    O81       1.04321      .   S
    Zr12   O82       2.03701      .   S
    N65    O82       1.05430      .   S
    Zr12   O83       2.03190      .   S
    N48    O83       1.05235      .   S
    Zr7    O84       2.10650      .   S
    N58    O84       1.07968      .   S
    Zr7    O85       2.04502      .   S
    N49    O85       1.05586      .   S
    Zr7    O86       2.03799      .   S
    N71    O86       1.05165      .   S
    N67    O87       1.07960      .   S
    Zr14   O87       2.10650      .   S
    Zr6    O88       2.10676      .   S
    N20    O88       1.07976      .   S
    Zr6    O89       2.03785      .   S
    N60    O89       1.05153      .   S
    Zr6    O90       2.04611      .   S
    N51    O90       1.05654      .   S
    Zr8    O91       2.00327      .   S
    N64    O91       1.04324      .   S
    Zr8    O92       2.03655      .   S
    N63    O92       1.05407  1_556   S
    Zr8    O93       2.03469      .   S
    N47    O93       1.05376      .   S
    Zr15   O94       2.03777      .   S
    N69    O94       1.05153      .   S
    Zr15   O95       2.04588      .   S
    N37    O95       1.05633  1_554   S
    Zr15   O96       2.10657      .   S
    N70    O96       1.07973      .   S
    Zr3    O97       2.04538      .   S
    N59    O97       1.05611  1_556   S
    Zr3    O98       2.10597      .   S
    N57    O98       1.07948      .   S
    Zr3    O99       2.03838      .   S
    N37    O99       1.05173      .   S
    Zr10   O100      2.10592      .   S
    N64    O100      1.07946      .   S
    Zr10   O101      2.03862      .   S
    N51    O101      1.05173      .   S
    Zr10   O102      2.04532      .   S
    N71    O102      1.05608      .   S
    Zr13   O103      2.03821      .   S
    N68    O103      1.05489  1_455   S
    Zr13   O104      2.03357      .   S
    N46    O104      1.05336      .   S
    Zr13   O105      2.00312      .   S
    N70    O105      1.04333      .   S
    Zr1    O106      2.03084      .   S
    N65    O106      1.05187      .   S
    Zr1    O107      2.00325      .   S
    N57    O107      1.04322      .   S
    Zr1    O108      2.03760      .   S
    N46    O108      1.05481      .   S
    Zr0    O109      2.03370      .   S
    N68    O109      1.05362      .   S
    Zr0    O110      2.00371      .   S
    N66    O110      1.04336      .   S
    Zr0    O111      2.03675      .   S
    N48    O111      1.05418      .   S
    Zr4    O112      2.03166      .   S
    N63    O112      1.05222      .   S
    Zr4    O113      2.00388      .   S
    N20    O113      1.04347      .   S
    Zr4    O114      2.04861      .   S
    N50    O114      1.06552  1_654   S
    Zr14   O115      2.03819      .   S
    N59    O115      1.05171      .   S
    Zr14   O116      2.04616      .   S
    N52    O116      1.05644  1_554   S
    Zr9    O117      2.00840      .   S
    N62    O117      1.04500      .   S
    Zr9    O118      2.02206      .   S
    N50    O118      1.04230      .   S
    Zr9    O119      2.03512      .   S
    N61    O119      1.05360  1_556   S
