# CIF file generated by openbabel 2.4.90, see http://openbabel.sf.net
data_I
_chemical_name_common ''
_cell_length_a 15.295
_cell_length_b 19.779
_cell_length_c 15.02
_cell_angle_alpha 109.185
_cell_angle_beta 100.984
_cell_angle_gamma 90.011
_space_group_name_H-M_alt 'P 1'
_space_group_name_Hall 'P 1'
loop_
    _symmetry_equiv_pos_as_xyz
    x,y,z
loop_
    _atom_site_label
    _atom_site_type_symbol
    _atom_site_fract_x
    _atom_site_fract_y
    _atom_site_fract_z
    _atom_site_occupancy
    N0      N    0.87500   0.92778   0.99994   1.000
    N1      N    0.87500   0.42778   0.99994   1.000
    N2      N    0.37501   0.42778   0.99992   1.000
    N3      N    0.37501   0.92778   0.99994   1.000
    N4      N    0.12503   0.07222   0.00007   1.000
    N5      N    0.12503   0.57223   0.00009   1.000
    N6      N    0.62502   0.07222   0.00007   1.000
    N7      N    0.62502   0.57223   0.00007   1.000
    N8      N    0.30791   0.31769   0.43981   1.000
    N9      N    0.30790   0.81768   0.43981   1.000
    N10     N    0.80790   0.31769   0.43979   1.000
    N11     N    0.80790   0.81768   0.43981   1.000
    N12     N    0.55799   0.90220   0.43960   1.000
    N13     N    0.44204   0.09782   0.56041   1.000
    N14     N    0.44204   0.59780   0.56041   1.000
    N15     N    0.94203   0.09782   0.56041   1.000
    N16     N    0.94203   0.59780   0.56041   1.000
    N17     N    0.19213   0.18233   0.56022   1.000
    N18     N    0.19213   0.68232   0.56022   1.000
    N19     N    0.69213   0.18233   0.56022   1.000
    N20     N    0.69212   0.68232   0.56022   1.000
    N21     N    0.05800   0.40221   0.43962   1.000
    N22     N    0.05800   0.90219   0.43962   1.000
    N23     N    0.55799   0.40221   0.43962   1.000
    Zr24    Zr   0.00002   0.75000   0.50002   1.000
    O25     O    0.01887   0.80189   0.48331   1.000
    O26     O    0.93117   0.76632   0.47081   1.000
    O27     O    0.98117   0.69811   0.51673   1.000
    O28     O    0.06887   0.73368   0.52923   1.000
    O29     O    0.03766   0.69732   0.35688   1.000
    O30     O    0.96237   0.80268   0.64316   1.000
    Zr31    Zr   0.50001   0.25001   0.50002   1.000
    O32     O    0.43117   0.26633   0.47081   1.000
    O33     O    0.51886   0.30190   0.48331   1.000
    O34     O    0.48117   0.19812   0.51673   1.000
    O35     O    0.56886   0.23369   0.52923   1.000
    O36     O    0.53766   0.19733   0.35687   1.000
    O37     O    0.46237   0.30269   0.64315   1.000
    Zr38    Zr   0.50001   0.75000   0.50002   1.000
    O39     O    0.53765   0.69732   0.35687   1.000
    O40     O    0.51886   0.80189   0.48330   1.000
    O41     O    0.43117   0.76632   0.47081   1.000
    O42     O    0.48117   0.69811   0.51673   1.000
    O43     O    0.56886   0.73368   0.52923   1.000
    O44     O    0.46237   0.80268   0.64316   1.000
    Zr45    Zr   0.25002   0.00002   0.50002   1.000
    O46     O    0.31883   0.03094   0.52930   1.000
    O47     O    0.26883   0.93978   0.48338   1.000
    O48     O    0.18121   0.96908   0.47074   1.000
    O49     O    0.23121   0.06024   0.51666   1.000
    O50     O    0.28766   0.98110   0.35682   1.000
    O51     O    0.21238   0.01892   0.64320   1.000
    Zr52    Zr   0.25002   0.50001   0.50002   1.000
    O53     O    0.26883   0.43978   0.48338   1.000
    O54     O    0.23121   0.56023   0.51666   1.000
    O55     O    0.18121   0.46908   0.47074   1.000
    O56     O    0.31883   0.53093   0.52930   1.000
    O57     O    0.21238   0.51891   0.64320   1.000
    O58     O    0.28766   0.48110   0.35682   1.000
    Zr59    Zr   0.75001   0.00002   0.50002   1.000
    O60     O    0.76882   0.93978   0.48338   1.000
    O61     O    0.68120   0.96909   0.47072   1.000
    O62     O    0.73120   0.06024   0.51666   1.000
    O63     O    0.81883   0.03094   0.52930   1.000
    O64     O    0.71237   0.01892   0.64320   1.000
    O65     O    0.78766   0.98110   0.35683   1.000
    Zr66    Zr   0.75001   0.50001   0.50002   1.000
    O67     O    0.71237   0.51891   0.64320   1.000
    O68     O    0.68120   0.46908   0.47074   1.000
    O69     O    0.76882   0.43978   0.48337   1.000
    O70     O    0.73120   0.56023   0.51666   1.000
    O71     O    0.81882   0.53093   0.52930   1.000
    O72     O    0.78765   0.48110   0.35682   1.000
    Zr73    Zr   0.00002   0.25001   0.50002   1.000
    O74     O    0.93117   0.26633   0.47080   1.000
    O75     O    0.01887   0.30190   0.48331   1.000
    O76     O    0.98117   0.19812   0.51673   1.000
    O77     O    0.06887   0.23369   0.52923   1.000
    O78     O    0.03767   0.19733   0.35687   1.000
    O79     O    0.96238   0.30269   0.64316   1.000
loop_
    _geom_bond_atom_site_label_1
    _geom_bond_atom_site_label_2
    _geom_bond_distance
    _geom_bond_site_symmetry_2
    _ccdc_geom_bond_type
    Zr24   O25       1.18169      .   S
    N22    O25       2.39358      .   S
    Zr24   O26       1.15013  1_455   S
    N11    O26       2.18651      .   S
    Zr24   O27       1.18171  1_455   S
    N16    O27       2.39360      .   S
    Zr24   O28       1.15004      .   S
    N18    O28       2.18638      .   S
    Zr24   O29       2.24481      .   S
    N5     O29       5.53551      .   S
    Zr24   O30       2.24480  1_455   S
    N0     O30       5.53543      .   S
    Zr31   O32       1.15005      .   S
    N8     O32       2.18638      .   S
    Zr31   O33       1.18169      .   S
    N23    O33       2.39358      .   S
    Zr31   O34       1.18168      .   S
    N13    O34       2.39355      .   S
    Zr31   O35       1.15005      .   S
    N19    O35       2.18639      .   S
    Zr31   O36       2.24486      .   S
    N6     O36       5.53569      .   S
    Zr31   O37       2.24469      .   S
    N2     O37       5.53517      .   S
    Zr38   O39       2.24485      .   S
    N7     O39       5.53565      .   S
    Zr38   O40       1.18174      .   S
    N12    O40       2.39375      .   S
    Zr38   O41       1.15005      .   S
    N9     O41       2.18638      .   S
    Zr38   O42       1.18168      .   S
    N14    O42       2.39355      .   S
    Zr38   O43       1.15004      .   S
    N20    O43       2.18638      .   S
    Zr38   O44       2.24474      .   S
    N3     O44       5.53532      .   S
    Zr45   O46       1.14967      .   S
    N13    O46       2.18551      .   S
    Zr45   O47       1.18174  1_545   S
    N9     O47       2.39350      .   S
    Zr45   O48       1.14977  1_545   S
    N22    O48       2.18571      .   S
    Zr45   O49       1.18159      .   S
    N17    O49       2.39324      .   S
    Zr45   O50       2.24515  1_545   S
    N3     O50       5.53580  1_556   S
    Zr45   O51       2.24491      .   S
    N4     O51       5.53559  1_554   S
    Zr52   O53       1.18158      .   S
    N8     O53       2.39324      .   S
    Zr52   O54       1.18159      .   S
    N18    O54       2.39325      .   S
    Zr52   O55       1.14967      .   S
    N21    O55       2.18551      .   S
    Zr52   O56       1.14967      .   S
    N14    O56       2.18551      .   S
    Zr52   O57       2.24497      .   S
    N5     O57       5.53577  1_554   S
    Zr52   O58       2.24523      .   S
    N2     O58       5.53601  1_556   S
    Zr59   O60       1.18174  1_545   S
    N11    O60       2.39350      .   S
    Zr59   O61       1.14978  1_545   S
    N12    O61       2.18569      .   S
    Zr59   O62       1.18158      .   S
    N19    O62       2.39324      .   S
    Zr59   O63       1.14967      .   S
    N15    O63       2.18551      .   S
    Zr59   O64       2.24494      .   S
    N6     O64       5.53567  1_554   S
    Zr59   O65       2.24500  1_545   S
    N0     O65       5.53586  1_556   S
    Zr66   O67       2.24492      .   S
    N7     O67       5.53562  1_554   S
    Zr66   O68       1.14967      .   S
    N23    O68       2.18551      .   S
    Zr66   O69       1.18158      .   S
    N10    O69       2.39324      .   S
    Zr66   O70       1.18159      .   S
    N20    O70       2.39325      .   S
    Zr66   O71       1.14967      .   S
    N16    O71       2.18551      .   S
    Zr66   O72       2.24517      .   S
    N1     O72       5.53581  1_556   S
    Zr73   O74       1.15016  1_455   S
    N10    O74       2.18657      .   S
    Zr73   O75       1.18169      .   S
    N21    O75       2.39358      .   S
    Zr73   O76       1.18170  1_455   S
    N15    O76       2.39359      .   S
    Zr73   O77       1.15005      .   S
    N17    O77       2.18639      .   S
    Zr73   O78       2.24488      .   S
    N4     O78       5.53575      .   S
    Zr73   O79       2.24479  1_455   S
    N1     O79       5.53542      .   S
