# CIF file generated by openbabel 2.4.90, see http://openbabel.sf.net
data_I
_chemical_name_common ''
_cell_length_a 7.816
_cell_length_b 10.681
_cell_length_c 17.955
_cell_angle_alpha 89.939
_cell_angle_beta 89.762
_cell_angle_gamma 89.996
_space_group_name_H-M_alt 'P 1'
_space_group_name_Hall 'P 1'
loop_
    _symmetry_equiv_pos_as_xyz
    x,y,z
loop_
    _atom_site_label
    _atom_site_type_symbol
    _atom_site_fract_x
    _atom_site_fract_y
    _atom_site_fract_z
    _atom_site_occupancy
    Ca0     Ca   0.19348   0.73573   0.64550   1.000
    Ca1     Ca   0.68994   0.76411   0.14595   1.000
    Ca2     Ca   0.80631   0.26320   0.35441   1.000
    P3      P    0.15746   0.42913   0.70685   1.000
    P4      P    0.34578   0.92940   0.79284   1.000
    P5      P    0.84254   0.56965   0.29304   1.000
    P6      P    0.65382   0.06959   0.20710   1.000
    H7      H    0.90161   0.38338   0.81298   1.000
    H8      H    0.77987   0.44981   0.74186   1.000
    H9      H    0.00954   0.30010   0.58264   1.000
    H10     H    0.82303   0.22567   0.61454   1.000
    H11     H    0.66276   0.42056   0.62094   1.000
    H12     H    0.84899   0.51297   0.61611   1.000
    H13     H    0.57084   0.12296   0.75790   1.000
    H14     H    0.26859   0.43676   0.56893   1.000
    H15     H    0.15069   0.03714   0.69308   1.000
    H16     H    0.60226   0.88385   0.68699   1.000
    H17     H    0.72377   0.94970   0.75828   1.000
    H18     H    0.49306   0.79862   0.91709   1.000
    H19     H    0.68102   0.72613   0.88530   1.000
    H20     H    0.83830   0.92217   0.87992   1.000
    H21     H    0.65258   0.01456   0.88355   1.000
    H22     H    0.93256   0.62272   0.74192   1.000
    H23     H    0.23524   0.93763   0.93092   1.000
    H24     H    0.35327   0.53682   0.80665   1.000
    H25     H    0.09934   0.61656   0.18724   1.000
    H26     H    0.22183   0.55075   0.25831   1.000
    H27     H    0.99007   0.69862   0.41764   1.000
    H28     H    0.17687   0.77293   0.38592   1.000
    H29     H    0.33644   0.57764   0.37908   1.000
    H30     H    0.14988   0.48564   0.38389   1.000
    H31     H    0.42862   0.87830   0.24224   1.000
    Ca32    Ca   0.30972   0.23599   0.85444   1.000
    H33     H    0.73131   0.56111   0.43101   1.000
    H34     H    0.84976   0.96235   0.30701   1.000
    H35     H    0.39673   0.11545   0.31296   1.000
    H36     H    0.27439   0.05003   0.24178   1.000
    H37     H    0.50632   0.19916   0.08271   1.000
    H38     H    0.31895   0.27259   0.11439   1.000
    H39     H    0.16039   0.07688   0.12047   1.000
    H40     H    0.34927   0.98687   0.11644   1.000
    H41     H    0.06779   0.37761   0.25800   1.000
    H42     H    0.76835   0.06290   0.06887   1.000
    H43     H    0.64695   0.46155   0.19314   1.000
    C44     C    0.69130   0.27643   0.77920   1.000
    C45     C    0.83848   0.36153   0.76003   1.000
    C46     C    0.96923   0.31615   0.70139   1.000
    C47     C    0.89999   0.31090   0.62051   1.000
    C48     C    0.79306   0.42454   0.59698   1.000
    C49     C    0.77001   0.43536   0.51381   1.000
    C50     C    0.04253   0.19096   0.72554   1.000
    C51     C    0.81237   0.77663   0.72079   1.000
    C52     C    0.66508   0.86160   0.73998   1.000
    C53     C    0.53388   0.81613   0.79847   1.000
    C54     C    0.60265   0.81072   0.87939   1.000
    C55     C    0.70732   0.92520   0.90321   1.000
    C56     C    0.72774   0.93644   0.98644   1.000
    C57     C    0.46075   0.69105   0.77428   1.000
    C58     C    0.30841   0.72477   0.22103   1.000
    C59     C    0.16214   0.63869   0.24021   1.000
    C60     C    0.03066   0.68304   0.29886   1.000
    C61     C    0.09966   0.68785   0.37978   1.000
    C62     C    0.20621   0.57387   0.40313   1.000
    C63     C    0.22964   0.56261   0.48626   1.000
    C64     C    0.95713   0.80812   0.27472   1.000
    C65     C    0.18775   0.22387   0.27913   1.000
    C66     C    0.33403   0.13787   0.25997   1.000
    C67     C    0.46548   0.18260   0.20140   1.000
    C68     C    0.39669   0.18772   0.12047   1.000
    C69     C    0.29108   0.07352   0.09692   1.000
    C70     C    0.26978   0.06222   0.01372   1.000
    C71     C    0.53905   0.30750   0.22553   1.000
    O72     O    0.59210   0.30383   0.83119   1.000
    O73     O    0.67404   0.17573   0.73755   1.000
    O74     O    0.77826   0.34165   0.47175   1.000
    O75     O    0.74125   0.54922   0.49075   1.000
    O76     O    0.06516   0.16632   0.79283   1.000
    O77     O    0.08809   0.11385   0.67181   1.000
    O78     O    0.23810   0.41223   0.78500   1.000
    O79     O    0.07448   0.56127   0.70016   1.000
    O80     O    0.28058   0.40037   0.64354   1.000
    O81     O    0.91162   0.80451   0.66888   1.000
    O82     O    0.82974   0.67562   0.76232   1.000
    O83     O    0.71846   0.84285   0.02863   1.000
    O84     O    0.76131   0.05137   0.00912   1.000
    O85     O    0.43828   0.66679   0.70698   1.000
    O86     O    0.41521   0.61358   0.82797   1.000
    O87     O    0.26507   0.91246   0.71475   1.000
    O88     O    0.42907   0.06252   0.79957   1.000
    O89     O    0.22289   0.90118   0.85634   1.000
    O90     O    0.40753   0.69796   0.16890   1.000
    O91     O    0.32537   0.82557   0.26264   1.000
    O92     O    0.22161   0.65617   0.52843   1.000
    O93     O    0.25853   0.44868   0.50917   1.000
    O94     O    0.93467   0.83244   0.20740   1.000
    O95     O    0.91142   0.88542   0.32834   1.000
    O96     O    0.76192   0.58672   0.21491   1.000
    O97     O    0.92568   0.43756   0.29964   1.000
    O98     O    0.71928   0.59767   0.35641   1.000
    O99     O    0.08859   0.19685   0.33124   1.000
    O100    O    0.17090   0.32482   0.23752   1.000
    O101    O    0.28176   0.15538   0.97135   1.000
    O102    O    0.24472   0.94956   0.99066   1.000
    O103    O    0.56162   0.33157   0.29285   1.000
    O104    O    0.58497   0.38483   0.17185   1.000
    O105    O    0.73428   0.08621   0.28529   1.000
    O106    O    0.57105   0.93853   0.20068   1.000
    O107    O    0.77685   0.09860   0.14381   1.000
loop_
    _geom_bond_atom_site_label_1
    _geom_bond_atom_site_label_2
    _geom_bond_distance
    _geom_bond_site_symmetry_2
    _ccdc_geom_bond_type
    O84    H42       1.08173      .   S
    O84    C56       1.32050  1_544   S
    C70    C69       1.50867      .   S
    C70    O101      1.25523  1_554   S
    C70    O102      1.28818  1_544   S
    O83    Ca1       2.27739      .   S
    O83    C56       1.25551  1_554   S
    H37    C68       1.09722      .   S
    C69    H40       1.08939  1_545   S
    C69    C68       1.53368      .   S
    C69    H39       1.10462      .   S
    H38    C68       1.09686      .   S
    C68    C67       1.55231      .   S
    O107   P6        1.51731      .   S
    Ca1    O106      2.30132      .   S
    O90    C58       1.24615      .   S
    O104   H43       1.02693      .   S
    O104   C71       1.31739      .   S
    H25    C59       1.09818      .   S
    O106   P6        1.54676  1_565   S
    C67    P6        1.90659      .   S
    C67    C71       1.51707      .   S
    C67    C66       1.54270      .   S
    P6     O105      1.55109      .   S
    O94    C64       1.24920      .   S
    O96    P5        1.55068      .   S
    C58    C59       1.50571      .   S
    C58    O91       1.31809      .   S
    C71    O103      1.24912      .   S
    O100   H41       1.04904      .   S
    O100   C65       1.31802      .   S
    C59    H26       1.09825      .   S
    C59    C60       1.54313      .   S
    H36    C66       1.09827      .   S
    H31    O91       1.04875      .   S
    C66    C65       1.50547      .   S
    C66    H35       1.09816      .   S
    C64    C60       1.51777  1_655   S
    C64    O95       1.31720      .   S
    C65    O99       1.24615      .   S
    P5     C60       1.90821  1_655   S
    P5     O97       1.55789      .   S
    P5     O98       1.51790      .   S
    C60    C61       1.55282      .   S
    O97    Ca2       2.30093      .   S
    H34    O95       1.02712      .   S
    Ca2    O74       2.27792      .   S
    H29    C62       1.10472      .   S
    C61    H28       1.09686      .   S
    C61    C62       1.53397      .   S
    C61    H27       1.09737  1_455   S
    H30    C62       1.09686      .   S
    C62    C63       1.50918      .   S
    H33    O75       1.08307      .   S
    O74    C49       1.25603      .   S
    C63    O93       1.30408      .   S
    C63    O92       1.25591      .   S
    O75    C49       1.30407      .   S
    O93    H14       1.08365      .   S
    C49    C48       1.50911      .   S
    O92    Ca0       2.27777      .   S
    H9     C47       1.09735  1_455   S
    C48    H12       1.09688      .   S
    C48    C47       1.53355      .   S
    C48    H11       1.10475      .   S
    H10    C47       1.09668      .   S
    C47    C46       1.55298      .   S
    O80    P3        1.51793      .   S
    Ca0    O79       2.29988      .   S
    O81    C51       1.24606      .   S
    O77    H15       1.02830      .   S
    O77    C50       1.31711      .   S
    H16    C52       1.09823      .   S
    O79    P3        1.55795      .   S
    C46    P3        1.90577  1_655   S
    C46    C50       1.51825  1_655   S
    C46    C45       1.54276      .   S
    P3     O78       1.55101      .   S
    O85    C57       1.24927      .   S
    O87    P4        1.55061      .   S
    C51    C52       1.50489      .   S
    C51    O82       1.31817      .   S
    C50    O76       1.24944      .   S
    O73    H13       1.04839      .   S
    O73    C44       1.31792      .   S
    C52    H17       1.09812      .   S
    C52    C53       1.54296      .   S
    H8     C45       1.09816      .   S
    H22    O82       1.04755      .   S
    C45    C44       1.50464      .   S
    C45    H7        1.09818      .   S
    C57    C53       1.51781      .   S
    C57    O86       1.31765      .   S
    C44    O72       1.24616      .   S
    P4     C53       1.90690      .   S
    P4     O88       1.56886  1_565   S
    P4     O89       1.51779      .   S
    C53    C54       1.55213      .   S
    O88    Ca32      2.29563      .   S
    H24    O86       1.02738      .   S
    Ca32   O101      2.27756      .   S
    C54    H19       1.09681      .   S
    C54    C55       1.53343      .   S
    C54    H18       1.09717      .   S
    H20    C55       1.10469      .   S
    H21    C55       1.10419  1_545   S
    C55    C56       1.50847      .   S
    H23    O102      1.08310      .   S
    O72    Ca32      2.35849      .   S
    O76    Ca32      2.33470      .   S
    O78    Ca32      2.32638      .   S
    O81    Ca0       2.35841  1_655   S
    O85    Ca0       2.33177      .   S
    O87    Ca0       2.33097      .   S
    O90    Ca1       2.35234      .   S
    O94    Ca1       2.32988      .   S
    O96    Ca1       2.33248      .   S
    O99    Ca2       2.35288  1_455   S
    O103   Ca2       2.32987      .   S
    O105   Ca2       2.33283      .   S
