# CIF file generated by openbabel 2.4.90, see http://openbabel.sf.net
data_I
_chemical_name_common ''
_cell_length_a 15.23
_cell_length_b 17.848
_cell_length_c 17.848
_cell_angle_alpha 90
_cell_angle_beta 90
_cell_angle_gamma 89.999
_space_group_name_H-M_alt 'P 1'
_space_group_name_Hall 'P 1'
loop_
    _symmetry_equiv_pos_as_xyz
    x,y,z
loop_
    _atom_site_label
    _atom_site_type_symbol
    _atom_site_fract_x
    _atom_site_fract_y
    _atom_site_fract_z
    _atom_site_occupancy
    Si0     Si   0.62215   0.75000   0.75000   1.000
    Si1     Si   0.12214   0.75000   0.75000   1.000
    Si2     Si   0.87787   0.25000   0.25000   1.000
    Si3     Si   0.37786   0.25000   0.25000   1.000
    F4      F    0.62223   0.69980   0.83116   1.000
    F5      F    0.62223   0.80021   0.66884   1.000
    F6      F    0.62223   0.66884   0.69980   1.000
    F7      F    0.62223   0.83117   0.80020   1.000
    F8      F    0.12222   0.69980   0.66884   1.000
    F9      F    0.12222   0.80021   0.83116   1.000
    F10     F    0.12222   0.66884   0.80020   1.000
    F11     F    0.12222   0.83117   0.69980   1.000
    F12     F    0.73682   0.75001   0.75000   1.000
    F13     F    0.50749   0.75000   0.75000   1.000
    F14     F    0.23681   0.75000   0.75000   1.000
    F15     F    0.00748   0.75001   0.75000   1.000
    F16     F    0.87778   0.30020   0.33116   1.000
    F17     F    0.87780   0.19980   0.16880   1.000
    F18     F    0.87779   0.33116   0.19979   1.000
    F19     F    0.87779   0.16884   0.30020   1.000
    F20     F    0.37777   0.30021   0.16884   1.000
    F21     F    0.37779   0.19980   0.33116   1.000
    F22     F    0.37777   0.33116   0.30020   1.000
    F23     F    0.37780   0.16884   0.19979   1.000
    F24     F    0.76320   0.25001   0.25000   1.000
    F25     F    0.99253   0.24999   0.24999   1.000
    F26     F    0.26319   0.25002   0.25000   1.000
    F27     F    0.49252   0.24998   0.25000   1.000
loop_
    _geom_bond_atom_site_label_1
    _geom_bond_atom_site_label_2
    _geom_bond_distance
    _geom_bond_site_symmetry_2
    _ccdc_geom_bond_type
    F17    Si2       1.70389      .   S
    F20    Si3       1.70330      .   S
    F23    Si3       1.70335      .   S
    F18    Si2       1.70337      .   S
    F25    Si2       1.74627      .   S
    F27    Si3       1.74627      .   S
    F26    Si3       1.74645      .   S
    F24    Si2       1.74645      .   S
    Si2    F19       1.70327      .   S
    Si2    F16       1.70327      .   S
    Si3    F22       1.70329      .   S
    Si3    F21       1.70326      .   S
    F8     Si1       1.70328      .   S
    F5     Si0       1.70329      .   S
    F11    Si1       1.70326      .   S
    F6     Si0       1.70326      .   S
    Si0    F13       1.74627      .   S
    Si0    F12       1.74645      .   S
    Si0    F7        1.70329      .   S
    Si0    F4        1.70327      .   S
    Si1    F15       1.74627      .   S
    Si1    F14       1.74645      .   S
    Si1    F10       1.70327      .   S
    Si1    F9        1.70328      .   S
