# CIF file generated by openbabel 2.4.90, see http://openbabel.sf.net
data_I
_chemical_name_common ''
_cell_length_a 15.23
_cell_length_b 17.848
_cell_length_c 17.848
_cell_angle_alpha 90
_cell_angle_beta 90
_cell_angle_gamma 89.999
_space_group_name_H-M_alt 'P 1'
_space_group_name_Hall 'P 1'
loop_
    _symmetry_equiv_pos_as_xyz
    x,y,z
loop_
    _atom_site_label
    _atom_site_type_symbol
    _atom_site_fract_x
    _atom_site_fract_y
    _atom_site_fract_z
    _atom_site_occupancy
    Zn0     Zn   0.37160   0.75001   0.75000   1.000
    Zn1     Zn   0.62841   0.25000   0.25000   1.000
    Zn2     Zn   0.12840   0.25000   0.25000   1.000
    Zn3     Zn   0.87161   0.75000   0.75000   1.000
    Ts4     Ts   0.37186   0.75261   0.70988   1.000
    Ts5     Ts   0.37186   0.74740   0.79012   1.000
    Ts6     Ts   0.37186   0.70989   0.74740   1.000
    Ts7     Ts   0.37186   0.79012   0.75260   1.000
    Ts8     Ts   0.62815   0.24740   0.29011   1.000
    Ts9     Ts   0.62815   0.25260   0.20988   1.000
    Ts10    Ts   0.62815   0.29012   0.25260   1.000
    Ts11    Ts   0.62815   0.20988   0.24740   1.000
    Ts12    Ts   0.12814   0.24740   0.20988   1.000
    Ts13    Ts   0.12814   0.25260   0.29011   1.000
    Ts14    Ts   0.12814   0.29012   0.24740   1.000
    Ts15    Ts   0.12814   0.20989   0.25260   1.000
    Ts16    Ts   0.87187   0.75261   0.79012   1.000
    Ts17    Ts   0.87187   0.74740   0.70988   1.000
    Ts18    Ts   0.87187   0.70989   0.75260   1.000
    Ts19    Ts   0.87187   0.79012   0.74740   1.000
loop_
    _geom_bond_atom_site_label_1
    _geom_bond_atom_site_label_2
    _geom_bond_distance
    _geom_bond_site_symmetry_2
    _ccdc_geom_bond_type
    Zn0    Ts4       0.71752      .   S
    Zn0    Ts5       0.71752      .   S
    Zn0    Ts6       0.71750      .   S
    Zn0    Ts7       0.71750      .   S
    Zn1    Ts8       0.71746      .   S
    Zn1    Ts9       0.71752      .   S
    Zn1    Ts10      0.71750      .   S
    Zn1    Ts11      0.71751      .   S
    Zn2    Ts12      0.71752      .   S
    Zn2    Ts13      0.71746      .   S
    Zn2    Ts14      0.71750      .   S
    Zn2    Ts15      0.71750      .   S
    Zn3    Ts16      0.71752      .   S
    Zn3    Ts17      0.71752      .   S
    Zn3    Ts18      0.71750      .   S
    Zn3    Ts19      0.71750      .   S
