# CIF file generated by openbabel 2.4.90, see http://openbabel.sf.net
data_I
_chemical_name_common ''
_cell_length_a 15.23
_cell_length_b 17.848
_cell_length_c 17.848
_cell_angle_alpha 90
_cell_angle_beta 90
_cell_angle_gamma 89.999
_space_group_name_H-M_alt 'P 1'
_space_group_name_Hall 'P 1'
loop_
    _symmetry_equiv_pos_as_xyz
    x,y,z
loop_
    _atom_site_label
    _atom_site_type_symbol
    _atom_site_fract_x
    _atom_site_fract_y
    _atom_site_fract_z
    _atom_site_occupancy
    N0      N    0.62592   0.75000   0.24999   1.000
    N1      N    0.87410   0.75000   0.24999   1.000
    N2      N    0.62592   0.25000   0.74999   1.000
    N3      N    0.87410   0.25000   0.74999   1.000
    N4      N    0.37409   0.75000   0.25000   1.000
    N5      N    0.12591   0.25000   0.74999   1.000
    N6      N    0.87782   0.25000   0.24999   1.000
    N7      N    0.12591   0.75000   0.24999   1.000
    N8      N    0.37409   0.25000   0.74977   1.000
    N9      N    0.62220   0.75000   0.75000   1.000
    N10     N    0.12219   0.75000   0.75000   1.000
    N11     N    0.37781   0.25000   0.25000   1.000
    Zr12    Zr   0.37160   0.75001   0.75000   1.000
    O13     O    0.37232   0.75098   0.60996   1.000
    O14     O    0.37232   0.74903   0.89004   1.000
    O15     O    0.37232   0.89005   0.75092   1.000
    O16     O    0.37232   0.60996   0.74897   1.000
    Zr17    Zr   0.62841   0.25000   0.25000   1.000
    O18     O    0.62769   0.24903   0.39004   1.000
    O19     O    0.62769   0.25098   0.10995   1.000
    O20     O    0.62769   0.39004   0.25097   1.000
    O21     O    0.62769   0.10996   0.24902   1.000
    Zr22    Zr   0.87161   0.75000   0.75000   1.000
    O23     O    0.87233   0.89005   0.74902   1.000
    O24     O    0.87233   0.60996   0.75097   1.000
    O25     O    0.87233   0.74903   0.60995   1.000
    O26     O    0.87233   0.75098   0.89004   1.000
    Zr27    Zr   0.12840   0.25000   0.25000   1.000
    O28     O    0.12768   0.25098   0.39004   1.000
    O29     O    0.12768   0.24903   0.10995   1.000
    O30     O    0.12768   0.10996   0.25097   1.000
    O31     O    0.12768   0.39005   0.24902   1.000
loop_
    _geom_bond_atom_site_label_1
    _geom_bond_atom_site_label_2
    _geom_bond_distance
    _geom_bond_site_symmetry_2
    _ccdc_geom_bond_type
    Zr12   O13       2.49959      .   S
    N4     O13       6.42461      .   S
    Zr12   O14       2.49958      .   S
    N4     O14       6.42455  1_554   S
    Zr12   O15       2.49956      .   S
    N8     O15       6.42457  1_545   S
    Zr12   O16       2.49959      .   S
    N8     O16       6.42460      .   S
    Zr17   O18       2.49953      .   S
    N2     O18       6.42450      .   S
    Zr17   O19       2.49962      .   S
    N2     O19       6.42468  1_556   S
    Zr17   O20       2.49958      .   S
    N0     O20       6.42460      .   S
    Zr17   O21       2.49958      .   S
    N0     O21       6.42457  1_565   S
    Zr22   O23       2.49957      .   S
    N3     O23       6.42455  1_545   S
    Zr22   O24       2.49959      .   S
    N3     O24       6.42462      .   S
    Zr22   O25       2.49961      .   S
    N1     O25       6.42465      .   S
    Zr22   O26       2.49956      .   S
    N1     O26       6.42450  1_554   S
    Zr27   O28       2.49953      .   S
    N5     O28       6.42450      .   S
    Zr27   O29       2.49962      .   S
    N5     O29       6.42468  1_556   S
    Zr27   O30       2.49958      .   S
    N7     O30       6.42457  1_565   S
    Zr27   O31       2.49958      .   S
    N7     O31       6.42460      .   S
