# CIF file generated by openbabel 2.4.90, see http://openbabel.sf.net
data_I
_chemical_name_common ''
_cell_length_a 7.3995
_cell_length_b 12.889
_cell_length_c 20.85
_cell_angle_alpha 90
_cell_angle_beta 90.001
_cell_angle_gamma 90.056
_space_group_name_H-M_alt 'P 1'
_space_group_name_Hall 'P 1'
loop_
    _symmetry_equiv_pos_as_xyz
    x,y,z
loop_
    _atom_site_label
    _atom_site_type_symbol
    _atom_site_fract_x
    _atom_site_fract_y
    _atom_site_fract_z
    _atom_site_occupancy
    Cu0     Cu   0.24170   0.66203   0.75001   1.000
    Cu1     Cu   0.74164   0.83942   0.75001   1.000
    Cu2     Cu   0.75832   0.33798   0.25002   1.000
    Cu3     Cu   0.25824   0.16068   0.25002   1.000
    S4      S    0.37965   0.07666   0.16243   1.000
    S5      S    0.12017   0.57721   0.83755   1.000
    S6      S    0.62004   0.92356   0.66250   1.000
    S7      S    0.87958   0.42274   0.33759   1.000
    S8      S    0.62025   0.92344   0.83758   1.000
    S9      S    0.87978   0.42279   0.16247   1.000
    S10     S    0.37961   0.07669   0.33762   1.000
    S11     S    0.12039   0.57733   0.66244   1.000
    I12     I    0.89451   0.14475   0.24999   1.000
    I13     I    0.60559   0.64571   0.75004   1.000
    I14     I    0.10555   0.85529   0.75006   1.000
    I15     I    0.39450   0.35435   0.25005   1.000
    Ts16    Ts   0.31806   0.05871   0.14599   1.000
    Ts17    Ts   0.41480   0.10942   0.14517   1.000
    Ts18    Ts   0.18170   0.55921   0.85398   1.000
    Ts19    Ts   0.08507   0.60989   0.85485   1.000
    Ts20    Ts   0.68167   0.94145   0.64606   1.000
    Ts21    Ts   0.58496   0.89078   0.64524   1.000
    Ts22    Ts   0.81806   0.44077   0.35401   1.000
    Ts23    Ts   0.91474   0.39008   0.35490   1.000
    Ts24    Ts   0.68185   0.94137   0.85403   1.000
    Ts25    Ts   0.58510   0.89066   0.85483   1.000
    Ts26    Ts   0.81824   0.44080   0.14605   1.000
    Ts27    Ts   0.91486   0.39012   0.14516   1.000
    Ts28    Ts   0.31802   0.05872   0.35406   1.000
    Ts29    Ts   0.41478   0.10943   0.35488   1.000
    Ts30    Ts   0.18190   0.55929   0.64602   1.000
    Ts31    Ts   0.08523   0.60998   0.64513   1.000
loop_
    _geom_bond_atom_site_label_1
    _geom_bond_atom_site_label_2
    _geom_bond_distance
    _geom_bond_site_symmetry_2
    _ccdc_geom_bond_type
    S4     Cu3       2.30578      .   S
    S9     Cu2       2.30936      .   S
    I12    Cu2       2.68767      .   S
    Cu3    I15       2.69129      .   S
    Cu3    S10       2.30577      .   S
    Cu2    S7        2.30864      .   S
    S11    Cu0       2.30871      .   S
    S6     Cu1       2.30574      .   S
    Cu1    I13       2.69120      .   S
    Cu1    S8        2.30546      .   S
    Cu0    I14       2.68786      .   S
    Cu0    S5        2.30933      .   S
    S4     Ts16      0.61528      .   S
    S4     Ts17      0.61252      .   S
    S5     Ts18      0.61534      .   S
    S5     Ts19      0.61262      .   S
    S6     Ts20      0.61525      .   S
    S6     Ts21      0.61257      .   S
    S7     Ts22      0.61540      .   S
    S7     Ts23      0.61260      .   S
    S8     Ts24      0.61527      .   S
    S8     Ts25      0.61256      .   S
    S9     Ts26      0.61533      .   S
    S9     Ts27      0.61253      .   S
    S10    Ts28      0.61526      .   S
    S10    Ts29      0.61252      .   S
    S11    Ts30      0.61532      .   S
    S11    Ts31      0.61260      .   S
