# CIF file generated by openbabel 2.4.90, see http://openbabel.sf.net
data_I
_chemical_name_common ''
_cell_length_a 7.3995
_cell_length_b 12.889
_cell_length_c 20.85
_cell_angle_alpha 90
_cell_angle_beta 90.001
_cell_angle_gamma 90.056
_space_group_name_H-M_alt 'P 1'
_space_group_name_Hall 'P 1'
loop_
    _symmetry_equiv_pos_as_xyz
    x,y,z
loop_
    _atom_site_label
    _atom_site_type_symbol
    _atom_site_fract_x
    _atom_site_fract_y
    _atom_site_fract_z
    _atom_site_occupancy
    N0      N    0.66871   0.08758   0.99903   1.000
    N1      N    0.83140   0.58754   0.49891   1.000
    N2      N    0.66869   0.08755   0.50103   1.000
    N3      N    0.33124   0.91247   0.49906   1.000
    N4      N    0.16853   0.41250   0.99893   1.000
    N5      N    0.83140   0.58754   0.00111   1.000
    N6      N    0.33122   0.91246   0.00097   1.000
    N7      N    0.16854   0.41251   0.50112   1.000
    Zr8     Zr   0.85305   0.33207   0.25002   1.000
    O9      O    0.83120   0.42536   0.34029   1.000
    O10     O    0.95174   0.36260   0.34118   1.000
    O11     O    0.95176   0.36260   0.15887   1.000
    O12     O    0.83124   0.42537   0.15975   1.000
    Zr13    Zr   0.35300   0.16710   0.25003   1.000
    O14     O    0.33112   0.07409   0.15970   1.000
    O15     O    0.45177   0.13689   0.15891   1.000
    O16     O    0.33112   0.07410   0.34035   1.000
    O17     O    0.45176   0.13689   0.34115   1.000
    Zr18    Zr   0.14695   0.66796   0.75001   1.000
    O19     O    0.04824   0.63744   0.65885   1.000
    O20     O    0.16878   0.57468   0.65974   1.000
    O21     O    0.16873   0.57466   0.84029   1.000
    O22     O    0.04821   0.63743   0.84116   1.000
    Zr23    Zr   0.64688   0.83303   0.75003   1.000
    O24     O    0.54812   0.86320   0.84112   1.000
    O25     O    0.66878   0.92599   0.84034   1.000
    O26     O    0.54810   0.86323   0.65893   1.000
    O27     O    0.66873   0.92600   0.65973   1.000
loop_
    _geom_bond_atom_site_label_1
    _geom_bond_atom_site_label_2
    _geom_bond_distance
    _geom_bond_site_symmetry_2
    _ccdc_geom_bond_type
    Zr8    O9        2.23951      .   S
    N1     O9        3.91243      .   S
    Zr8    O10       2.07367      .   S
    N7     O10       3.75586  1_455   S
    Zr8    O11       2.07357      .   S
    N4     O11       3.75558  1_456   S
    Zr8    O12       2.23943      .   S
    N5     O12       3.91264      .   S
    Zr13   O14       2.23826      .   S
    N6     O14       3.91062  1_565   S
    Zr13   O15       2.07263      .   S
    N0     O15       3.75429  1_556   S
    Zr13   O16       2.23804      .   S
    N3     O16       3.91022  1_565   S
    Zr13   O17       2.07258      .   S
    N2     O17       3.75425      .   S
    Zr18   O19       2.07371      .   S
    N1     O19       3.75588  1_655   S
    Zr18   O20       2.23940      .   S
    N7     O20       3.91230      .   S
    Zr18   O21       2.23949      .   S
    N4     O21       3.91274      .   S
    Zr18   O22       2.07358      .   S
    N5     O22       3.75601  1_654   S
    Zr23   O24       2.07195      .   S
    N6     O24       3.75353  1_554   S
    Zr23   O25       2.23754      .   S
    N0     O25       3.90972  1_545   S
    Zr23   O26       2.07219      .   S
    N3     O26       3.75382      .   S
    Zr23   O27       2.23753      .   S
    N2     O27       3.90960  1_545   S
