# CIF file generated by openbabel 2.4.90, see http://openbabel.sf.net
data_I
_chemical_name_common ''
_cell_length_a 13.592
_cell_length_b 22.212
_cell_length_c 22.222
_cell_angle_alpha 72.165
_cell_angle_beta 90.017
_cell_angle_gamma 89.997
_space_group_name_H-M_alt 'P 1'
_space_group_name_Hall 'P 1'
loop_
    _symmetry_equiv_pos_as_xyz
    x,y,z
loop_
    _atom_site_label
    _atom_site_type_symbol
    _atom_site_fract_x
    _atom_site_fract_y
    _atom_site_fract_z
    _atom_site_occupancy
    H0      H    0.31677   0.48618   0.06784   1.000
    H1      H    0.31659   0.48617   0.56788   1.000
    H2      H    0.31692   0.98614   0.06782   1.000
    H3      H    0.31661   0.98613   0.56789   1.000
    H4      H    0.81679   0.48618   0.06784   1.000
    H5      H    0.81661   0.48617   0.56788   1.000
    H6      H    0.81662   0.98613   0.56789   1.000
    H7      H    0.20095   0.48656   0.10718   1.000
    H8      H    0.20083   0.48658   0.60720   1.000
    H9      H    0.20110   0.98679   0.10708   1.000
    H10     H    0.20087   0.98674   0.60727   1.000
    H11     H    0.70097   0.48656   0.10718   1.000
    H12     H    0.70085   0.48658   0.60728   1.000
    H13     H    0.70089   0.98674   0.60727   1.000
    H14     H    0.20124   0.12645   0.21856   1.000
    H15     H    0.20108   0.12659   0.71851   1.000
    H16     H    0.20114   0.62652   0.71854   1.000
    H17     H    0.70125   0.12645   0.21856   1.000
    H18     H    0.70110   0.12659   0.71851   1.000
    H19     H    0.70129   0.62639   0.21861   1.000
    H20     H    0.70116   0.62652   0.71854   1.000
    H21     H    0.13063   0.17576   0.15454   1.000
    H22     H    0.13054   0.17586   0.65443   1.000
    H23     H    0.13060   0.67581   0.65447   1.000
    H24     H    0.63065   0.17576   0.15454   1.000
    H25     H    0.63056   0.17586   0.65443   1.000
    H26     H    0.63071   0.67573   0.15459   1.000
    H27     H    0.63062   0.67581   0.65447   1.000
    H28     H    0.30916   0.36794   0.12523   1.000
    H29     H    0.30887   0.36791   0.62545   1.000
    H30     H    0.30871   0.86793   0.12537   1.000
    H31     H    0.30841   0.86788   0.62568   1.000
    H32     H    0.80918   0.36794   0.12523   1.000
    H33     H    0.80889   0.36791   0.62545   1.000
    H34     H    0.80842   0.86788   0.62569   1.000
    H35     H    0.27848   0.08218   0.13994   1.000
    H36     H    0.27839   0.08221   0.63998   1.000
    H37     H    0.27842   0.58217   0.63998   1.000
    H38     H    0.77850   0.08218   0.13994   1.000
    H39     H    0.77841   0.08221   0.63998   1.000
    H40     H    0.77852   0.58214   0.13996   1.000
    H41     H    0.77844   0.58217   0.63998   1.000
    H42     H    0.31668   0.01380   0.43208   1.000
    H43     H    0.31695   0.01381   0.93214   1.000
    H44     H    0.31660   0.51378   0.43205   1.000
    H45     H    0.31672   0.51377   0.93207   1.000
    H46     H    0.81670   0.01380   0.43208   1.000
    H47     H    0.81697   0.01381   0.93214   1.000
    H48     H    0.81662   0.51378   0.43205   1.000
    H49     H    0.81674   0.51377   0.93207   1.000
    H50     H    0.20095   0.01315   0.39200   1.000
    H51     H    0.20113   0.01318   0.89284   1.000
    H52     H    0.20087   0.51329   0.39260   1.000
    H53     H    0.20093   0.51343   0.89260   1.000
    H54     H    0.70097   0.01315   0.39270   1.000
    H55     H    0.70115   0.01318   0.89284   1.000
    H56     H    0.70089   0.51329   0.39262   1.000
    H57     H    0.70095   0.51343   0.89267   1.000
    H58     H    0.20098   0.37339   0.28142   1.000
    H59     H    0.20111   0.37353   0.78137   1.000
    H60     H    0.20095   0.87333   0.28148   1.000
    H61     H    0.20110   0.87347   0.78143   1.000
    H62     H    0.70100   0.37339   0.28142   1.000
    H63     H    0.70112   0.37353   0.78137   1.000
    H64     H    0.70097   0.87333   0.28148   1.000
    H65     H    0.70112   0.87347   0.78143   1.000
    H66     H    0.13058   0.32409   0.34553   1.000
    H67     H    0.13067   0.32417   0.84543   1.000
    H68     H    0.13052   0.82406   0.34560   1.000
    H69     H    0.13061   0.82417   0.84549   1.000
    H70     H    0.63060   0.32409   0.34553   1.000
    H71     H    0.63069   0.32417   0.84543   1.000
    H72     H    0.63054   0.82406   0.34500   1.000
    H73     H    0.63063   0.82417   0.84549   1.000
    H74     H    0.30823   0.13206   0.37440   1.000
    H75     H    0.30866   0.13203   0.87470   1.000
    H76     H    0.30852   0.63206   0.37448   1.000
    H77     H    0.30904   0.63204   0.87475   1.000
    H78     H    0.69100   0.87462   0.63199   1.000
    H79     H    0.22172   0.35999   0.41773   1.000
    H80     H    0.22174   0.36002   0.91771   1.000
    H81     H    0.22167   0.85999   0.41778   1.000
    H82     H    0.80825   0.13206   0.37440   1.000
    H83     H    0.80868   0.13203   0.87470   1.000
    H84     H    0.80854   0.63206   0.37448   1.000
    H85     H    0.80906   0.63204   0.87475   1.000
    H86     H    0.27835   0.41777   0.35996   1.000
    H87     H    0.27842   0.41781   0.85998   1.000
    H88     H    0.27835   0.91774   0.35999   1.000
    H89     H    0.27844   0.91778   0.86000   1.000
    H90     H    0.77837   0.41777   0.35996   1.000
    H91     H    0.77844   0.41781   0.85998   1.000
    H92     H    0.77837   0.91774   0.35999   1.000
    H93     H    0.77846   0.91778   0.86000   1.000
    H94     H    0.18327   0.06774   0.48610   1.000
    H95     H    0.18310   0.06771   0.98615   1.000
    H96     H    0.18341   0.56775   0.48617   1.000
    H97     H    0.18340   0.56775   0.98615   1.000
    H98     H    0.68328   0.06774   0.48610   1.000
    H99     H    0.68312   0.06771   0.98615   1.000
    H100    H    0.68343   0.56775   0.48617   1.000
    H101    H    0.68342   0.56775   0.98615   1.000
    H102    H    0.29907   0.10714   0.48660   1.000
    H103    H    0.29892   0.10702   0.98684   1.000
    H104    H    0.29917   0.60720   0.48663   1.000
    H105    H    0.29913   0.60717   0.98683   1.000
    H106    H    0.79909   0.10714   0.48660   1.000
    H107    H    0.79894   0.10702   0.98684   1.000
    H108    H    0.79919   0.60720   0.48663   1.000
    H109    H    0.79915   0.60717   0.98683   1.000
    C110    C    0.16828   0.36981   0.32751   1.000
    C111    C    0.16837   0.36990   0.82746   1.000
    C112    C    0.16824   0.86978   0.32756   1.000
    C113    C    0.16834   0.86988   0.82751   1.000
    C114    C    0.66829   0.36981   0.32751   1.000
    H115    H    0.29885   0.21860   0.12639   1.000
    H116    H    0.29882   0.21864   0.62635   1.000
    H117    H    0.29894   0.71857   0.62646   1.000
    H118    H    0.79887   0.21860   0.12639   1.000
    H119    H    0.79884   0.21864   0.62635   1.000
    H120    H    0.79903   0.71852   0.12654   1.000
    H121    H    0.79896   0.71857   0.62646   1.000
    H122    H    0.36946   0.15457   0.17571   1.000
    H123    H    0.36940   0.15462   0.67570   1.000
    H124    H    0.36948   0.65451   0.67577   1.000
    H125    H    0.86947   0.15457   0.17571   1.000
    H126    H    0.86942   0.15462   0.67570   1.000
    H127    H    0.86957   0.65444   0.17582   1.000
    H128    H    0.86950   0.65451   0.67577   1.000
    H129    H    0.19084   0.12524   0.36801   1.000
    H130    H    0.19130   0.12536   0.86801   1.000
    H131    H    0.19111   0.62543   0.36799   1.000
    H132    H    0.19164   0.62565   0.86798   1.000
    H133    H    0.69086   0.12524   0.36801   1.000
    H134    H    0.69132   0.12536   0.86801   1.000
    H135    H    0.69113   0.62543   0.36799   1.000
    H136    H    0.69166   0.62565   0.86798   1.000
    H137    H    0.22154   0.13990   0.08222   1.000
    H138    H    0.22153   0.13991   0.58220   1.000
    H139    H    0.22160   0.63991   0.58223   1.000
    H140    H    0.72155   0.13990   0.08222   1.000
    H141    H    0.72155   0.13991   0.58220   1.000
    H142    H    0.72166   0.63992   0.08226   1.000
    H143    H    0.72162   0.63991   0.58223   1.000
    H144    H    0.18345   0.43214   0.01379   1.000
    H145    H    0.18354   0.43211   0.51379   1.000
    H146    H    0.18321   0.93217   0.01380   1.000
    H147    H    0.18350   0.93210   0.51378   1.000
    H148    H    0.68347   0.43214   0.01379   1.000
    H149    H    0.68356   0.43211   0.51379   1.000
    H150    H    0.68352   0.93210   0.51378   1.000
    H151    H    0.29916   0.39270   0.01317   1.000
    H152    H    0.29925   0.39262   0.51335   1.000
    H153    H    0.29900   0.89281   0.01323   1.000
    H154    H    0.29925   0.89262   0.51350   1.000
    H155    H    0.79917   0.39270   0.01317   1.000
    H156    H    0.79927   0.39262   0.51330   1.000
    H157    H    0.79928   0.89261   0.51351   1.000
    H158    H    0.29906   0.28139   0.37343   1.000
    H159    H    0.29910   0.28145   0.87337   1.000
    H160    H    0.29896   0.78134   0.37355   1.000
    H161    H    0.29896   0.78138   0.87353   1.000
    H162    H    0.79908   0.28139   0.37343   1.000
    H163    H    0.79912   0.28145   0.87337   1.000
    H164    H    0.79898   0.78134   0.37355   1.000
    H165    H    0.79898   0.78138   0.87353   1.000
    H166    H    0.36947   0.34550   0.32413   1.000
    H167    H    0.36954   0.34557   0.82411   1.000
    H168    H    0.36940   0.84540   0.32420   1.000
    H169    H    0.36946   0.84544   0.82420   1.000
    H170    H    0.86949   0.34550   0.32413   1.000
    H171    H    0.86956   0.34557   0.82411   1.000
    H172    H    0.86942   0.84541   0.32420   1.000
    H173    H    0.86948   0.84544   0.82420   1.000
    H174    H    0.19176   0.37432   0.13198   1.000
    H175    H    0.19145   0.37439   0.63200   1.000
    H176    H    0.19134   0.87460   0.13197   1.000
    H177    H    0.19099   0.87462   0.63199   1.000
    H178    H    0.69178   0.37432   0.13198   1.000
    H179    H    0.69147   0.37439   0.63200   1.000
    H180    H    0.22166   0.86003   0.91776   1.000
    H181    H    0.72174   0.35999   0.41773   1.000
    H182    H    0.72176   0.36002   0.91771   1.000
    H183    H    0.72169   0.85999   0.41778   1.000
    H184    H    0.72168   0.86003   0.91776   1.000
    C185    C    0.27032   0.46085   0.10796   1.000
    C186    C    0.27018   0.46086   0.60802   1.000
    C187    C    0.27035   0.96094   0.10792   1.000
    C188    C    0.27013   0.96091   0.60803   1.000
    C189    C    0.77034   0.46085   0.10796   1.000
    C190    C    0.77020   0.46086   0.60802   1.000
    C191    C    0.77014   0.96091   0.60803   1.000
    C192    C    0.16840   0.13005   0.17249   1.000
    C193    C    0.16830   0.13014   0.67244   1.000
    C194    C    0.16835   0.63010   0.67247   1.000
    C195    C    0.66842   0.13005   0.17249   1.000
    C196    C    0.66831   0.13014   0.67244   1.000
    C197    C    0.66847   0.63002   0.17253   1.000
    C198    C    0.66837   0.63010   0.67247   1.000
    C199    C    0.27014   0.03903   0.39195   1.000
    C200    C    0.27036   0.03904   0.89204   1.000
    C201    C    0.27013   0.53909   0.39191   1.000
    C202    C    0.27027   0.53915   0.89195   1.000
    C203    C    0.77016   0.03903   0.39195   1.000
    C204    C    0.77038   0.03904   0.89204   1.000
    C205    C    0.77015   0.53909   0.39191   1.000
    C206    C    0.77029   0.53915   0.89195   1.000
    C207    C    0.66838   0.36990   0.82740   1.000
    C208    C    0.66826   0.86978   0.32756   1.000
    C209    C    0.66836   0.86988   0.82751   1.000
    C210    C    0.22969   0.10790   0.46091   1.000
    C211    C    0.22966   0.10786   0.96100   1.000
    C212    C    0.22981   0.60794   0.46092   1.000
    C213    C    0.22988   0.60794   0.96100   1.000
    C214    C    0.72971   0.10790   0.46091   1.000
    C215    C    0.72968   0.10786   0.96100   1.000
    C216    C    0.72983   0.60794   0.46092   1.000
    C217    C    0.72990   0.60794   0.96100   1.000
    C218    C    0.33166   0.17250   0.13002   1.000
    C219    C    0.33163   0.17253   0.63001   1.000
    C220    C    0.33171   0.67247   0.63007   1.000
    C221    C    0.83168   0.17250   0.13002   1.000
    C222    C    0.83164   0.17253   0.63001   1.000
    C223    C    0.83180   0.67243   0.13013   1.000
    C224    C    0.83173   0.67247   0.63007   1.000
    C225    C    0.22993   0.39197   0.03900   1.000
    C226    C    0.22995   0.39193   0.53908   1.000
    C227    C    0.22974   0.89203   0.03903   1.000
    C228    C    0.22987   0.89192   0.53915   1.000
    C229    C    0.72995   0.39197   0.03900   1.000
    C230    C    0.72997   0.39192   0.53908   1.000
    C231    C    0.72989   0.89192   0.53915   1.000
    C232    C    0.33176   0.32751   0.36980   1.000
    C233    C    0.33181   0.32756   0.86980   1.000
    C234    C    0.33169   0.82745   0.36991   1.000
    C235    C    0.33172   0.82749   0.86990   1.000
    C236    C    0.83178   0.32751   0.36982   1.000
    C237    C    0.83183   0.32756   0.86980   1.000
    C238    C    0.83171   0.82746   0.36990   1.000
    C239    C    0.83174   0.82749   0.86991   1.000
    N240    N    0.25033   0.39617   0.10365   1.000
    N241    N    0.25013   0.39617   0.60374   1.000
    N242    N    0.25004   0.89627   0.10368   1.000
    N243    N    0.24983   0.89623   0.60381   1.000
    N244    N    0.75035   0.39617   0.10365   1.000
    N245    N    0.75015   0.39617   0.60374   1.000
    N246    N    0.74985   0.89623   0.60381   1.000
    N247    N    0.24970   0.10367   0.39623   1.000
    N248    N    0.24999   0.10368   0.89634   1.000
    N249    N    0.24988   0.60374   0.39623   1.000
    N250    N    0.25022   0.60380   0.89632   1.000
    N251    N    0.74972   0.10367   0.39623   1.000
    N252    N    0.75001   0.10368   0.89634   1.000
    N253    N    0.74990   0.60374   0.39623   1.000
    N254    N    0.75025   0.60380   0.89632   1.000
    N255    N    0.25002   0.12816   0.12818   1.000
    N256    N    0.24996   0.12820   0.62818   1.000
    N257    N    0.25002   0.62817   0.62820   1.000
    N258    N    0.75004   0.12816   0.12818   1.000
    N259    N    0.74998   0.12820   0.62818   1.000
    N260    N    0.75010   0.62814   0.12823   1.000
    N261    N    0.75004   0.62817   0.62820   1.000
    N262    N    0.25002   0.37176   0.37174   1.000
    N263    N    0.25007   0.37181   0.87170   1.000
    N264    N    0.24998   0.87174   0.37179   1.000
    N265    N    0.25003   0.87179   0.87179   1.000
    N266    N    0.75004   0.37176   0.37174   1.000
    N267    N    0.75009   0.37181   0.87170   1.000
    N268    N    0.75000   0.87174   0.37179   1.000
    N269    N    0.75005   0.87179   0.87179   1.000
loop_
    _geom_bond_atom_site_label_1
    _geom_bond_atom_site_label_2
    _geom_bond_distance
    _geom_bond_site_symmetry_2
    _ccdc_geom_bond_type
    H151   C225      1.09979      .   S
    H155   C229      1.09980      .   S
    H153   C227      1.09977      .   S
    H148   C229      1.09675      .   S
    H144   C225      1.09677      .   S
    H146   C227      1.09678      .   S
    C225   N240      1.49382      .   S
    C229   N244      1.49382      .   S
    C227   N242      1.49389      .   S
    H2     C187      1.09675      .   S
    H4     C189      1.09681      .   S
    H0     C185      1.09681      .   S
    H140   N258      1.04765      .   S
    H137   N255      1.04765      .   S
    H142   N260      1.04764      .   S
    N244   C189      1.49383      .   S
    N244   H32       1.03841      .   S
    N244   H178      1.03861      .   S
    N240   C185      1.49381      .   S
    N240   H28       1.03841      .   S
    N240   H174      1.03861      .   S
    N242   C187      1.49376      .   S
    N242   H30       1.03848      .   S
    N242   H176      1.03847      .   S
    H9     C187      1.09969      .   S
    H11    C189      1.09970      .   S
    H7     C185      1.09970      .   S
    H118   C221      1.09686      .   S
    H115   C218      1.09688      .   S
    H120   C223      1.09686      .   S
    N255   C218      1.49261      .   S
    N255   H35       1.04765      .   S
    N255   C192      1.49263      .   S
    N258   C221      1.49261      .   S
    N258   H38       1.04765      .   S
    N258   C195      1.49262      .   S
    N260   C223      1.49266      .   S
    N260   H40       1.04764      .   S
    N260   C197      1.49259      .   S
    C218   H122      1.09787      .   S
    C221   H125      1.09787      .   S
    C223   H127      1.09786      .   S
    H21    C192      1.09788      .   S
    H24    C195      1.09790      .   S
    H26    C197      1.09788      .   S
    C192   H14       1.09694      .   S
    C195   H17       1.09694      .   S
    C197   H19       1.09696      .   S
    H62    C114      1.09692      .   S
    H58    C110      1.09692      .   S
    H64    C208      1.09690      .   S
    H60    C112      1.09691      .   S
    H166   C232      1.09739      .   S
    H170   C236      1.09776      .   S
    H172   C238      1.09782      .   S
    H168   C234      1.09801      .   S
    C114   H70       1.09788      .   S
    C114   N266      1.49260      .   S
    C110   H66       1.09788      .   S
    C110   N262      1.49261      .   S
    C208   H72       1.09687      .   S
    C208   N268      1.49259      .   S
    C112   H68       1.09788      .   S
    C112   N264      1.49260      .   S
    H86    N262      1.04755      .   S
    H90    N266      1.04755      .   S
    H88    N264      1.04754      .   S
    H92    N268      1.04754      .   S
    H135   N253      1.03849      .   S
    H131   N249      1.03850      .   S
    H133   N251      1.03846      .   S
    H129   N247      1.03846      .   S
    C232   N262      1.49275      .   S
    C232   H158      1.09676      .   S
    C236   N266      1.49265      .   S
    C236   H162      1.09685      .   S
    C238   N268      1.49265      .   S
    C238   H164      1.09686      .   S
    C234   N264      1.49260      .   S
    C234   H160      1.09690      .   S
    N262   H79       1.04753      .   S
    N266   H181      1.04753      .   S
    N268   H183      1.04760      .   S
    N264   H81       1.04761      .   S
    H74    N247      1.03866      .   S
    H82    N251      1.03867      .   S
    H76    N249      1.03857      .   S
    H84    N253      1.03857      .   S
    C205   H56       1.09972      .   S
    C205   N253      1.49380      .   S
    C205   H48       1.09680      .   S
    C201   H52       1.09977      .   S
    C201   N249      1.49380      .   S
    C201   H44       1.09679      .   S
    C199   H50       1.10207      .   S
    C199   N247      1.49384      .   S
    C199   H42       1.09676      .   S
    C203   H54       1.09970      .   S
    C203   N251      1.49384      .   S
    C203   H46       1.09676      .   S
    N253   C216      1.49401      .   S
    N251   C214      1.49389      .   S
    N249   C212      1.49401      .   S
    N247   C210      1.49388      .   S
    C210   H94       1.09621      .   S
    C210   H102      1.09971      .   S
    C214   H98       1.09621      .   S
    C214   H106      1.09971      .   S
    C212   H96       1.09667      .   S
    C212   H104      1.09971      .   S
    C216   H100      1.09669      .   S
    C216   H108      1.09970      .   S
    H156   C230      1.10028      .   S
    H152   C226      1.09972      .   S
    H154   C228      1.09980      .   S
    H157   C231      1.09972      .   S
    H150   C231      1.09672      .   S
    H147   C228      1.09673      .   S
    H149   C230      1.09673      .   S
    H145   C226      1.09671      .   S
    C230   N245      1.49385      .   S
    C226   N241      1.49384      .   S
    C228   N243      1.49378      .   S
    C231   N246      1.49379      .   S
    H5     C190      1.09675      .   S
    H1     C186      1.09676      .   S
    H6     C191      1.09674      .   S
    H3     C188      1.09675      .   S
    H138   N256      1.04785      .   S
    H141   N259      1.04785      .   S
    H143   N261      1.04755      .   S
    H139   N257      1.04755      .   S
    N241   C186      1.49379      .   S
    N241   H29       1.03853      .   S
    N241   H175      1.03863      .   S
    N245   C190      1.49379      .   S
    N245   H33       1.03854      .   S
    N245   H179      1.03862      .   S
    N243   C188      1.49380      .   S
    N243   H31       1.03866      .   S
    N243   H177      1.03849      .   S
    N246   C191      1.49380      .   S
    N246   H34       1.03871      .   S
    N246   H78       1.03852      .   S
    H8     C186      1.09945      .   S
    H10    C188      1.09973      .   S
    H13    C191      1.09973      .   S
    H12    C190      1.09972      .   S
    H116   C219      1.09684      .   S
    H119   C222      1.09684      .   S
    H117   C220      1.09690      .   S
    H121   C224      1.09689      .   S
    N259   C222      1.49263      .   S
    N259   H39       1.04760      .   S
    N259   C196      1.49265      .   S
    N256   C219      1.49263      .   S
    N256   H36       1.04760      .   S
    N256   C193      1.49265      .   S
    N257   C220      1.49266      .   S
    N257   H37       1.04760      .   S
    N257   C194      1.49274      .   S
    N261   C224      1.49266      .   S
    N261   H41       1.04760      .   S
    N261   C198      1.49274      .   S
    C219   H123      1.09776      .   S
    C222   H126      1.09776      .   S
    C220   H124      1.09798      .   S
    C224   H128      1.09798      .   S
    H25    C196      1.09789      .   S
    H22    C193      1.09790      .   S
    H27    C198      1.09788      .   S
    H23    C194      1.09789      .   S
    C193   H15       1.09687      .   S
    C196   H18       1.09687      .   S
    C194   H16       1.09678      .   S
    C198   H20       1.09678      .   S
    H59    C111      1.09692      .   S
    H63    C207      1.09570      .   S
    H61    C113      1.09699      .   S
    H65    C209      1.09699      .   S
    H167   C233      1.09792      .   S
    H171   C237      1.09792      .   S
    H173   C239      1.09825      .   S
    H169   C235      1.09806      .   S
    C207   H71       1.09798      .   S
    C207   N267      1.49308      .   S
    C111   H67       1.09786      .   S
    C111   N263      1.49219      .   S
    C113   H69       1.09788      .   S
    C113   N265      1.49256      .   S
    C209   H73       1.09786      .   S
    C209   N269      1.49256      .   S
    H87    N263      1.04760      .   S
    H91    N267      1.04762      .   S
    H89    N265      1.04756      .   S
    H93    N269      1.04756      .   S
    H136   N254      1.03860      .   S
    H132   N250      1.03860      .   S
    H134   N252      1.03848      .   S
    H130   N248      1.03848      .   S
    C237   N267      1.49249      .   S
    C237   H163      1.09688      .   S
    C233   N263      1.49248      .   S
    C233   H159      1.09688      .   S
    C235   N265      1.49264      .   S
    C235   H161      1.09681      .   S
    C239   N269      1.49258      .   S
    C239   H165      1.09686      .   S
    N267   H182      1.04809      .   S
    N263   H80       1.04810      .   S
    N269   H184      1.04751      .   S
    N265   H180      1.04751      .   S
    H75    N248      1.03848      .   S
    H83    N252      1.03847      .   S
    H85    N254      1.03845      .   S
    H77    N250      1.03845      .   S
    C206   H57       1.09973      .   S
    C206   N254      1.49376      .   S
    C206   H49       1.09673      .   S
    C202   H53       1.09993      .   S
    C202   N250      1.49379      .   S
    C202   H45       1.09673      .   S
    C204   H55       1.09971      .   S
    C204   N252      1.49379      .   S
    C204   H47       1.09676      .   S
    C200   H51       1.09971      .   S
    C200   N248      1.49377      .   S
    C200   H43       1.09676      .   S
    N254   C217      1.49398      .   S
    N250   C213      1.49398      .   S
    N248   C211      1.49379      .   S
    N252   C215      1.49378      .   S
    C211   H95       1.09677      .   S
    C211   H103      1.09976      .   S
    C213   H97       1.09671      .   S
    C213   H105      1.09973      .   S
    C215   H99       1.09676      .   S
    C215   H107      1.09977      .   S
    C217   H101      1.09672      .   S
    C217   H109      1.09972      .   S
