# CIF file generated by openbabel 2.4.90, see http://openbabel.sf.net
data_I
_chemical_name_common ''
_cell_length_a 13.592
_cell_length_b 22.212
_cell_length_c 22.222
_cell_angle_alpha 72.165
_cell_angle_beta 90.017
_cell_angle_gamma 89.997
_space_group_name_H-M_alt 'P 1'
_space_group_name_Hall 'P 1'
loop_
    _symmetry_equiv_pos_as_xyz
    x,y,z
loop_
    _atom_site_label
    _atom_site_type_symbol
    _atom_site_fract_x
    _atom_site_fract_y
    _atom_site_fract_z
    _atom_site_occupancy
    Zn0     Zn   0.44591   0.00003   0.75000   1.000
    Zn1     Zn   0.44591   0.49997   0.24999   1.000
    Zn2     Zn   0.44591   0.50001   0.74999   1.000
    Zn3     Zn   0.94593   0.99997   0.25000   1.000
    Zn4     Zn   0.94593   0.00003   0.75000   1.000
    Zn5     Zn   0.94592   0.49997   0.24999   1.000
    Zn6     Zn   0.94593   0.50001   0.74999   1.000
    Zn7     Zn   0.05411   0.24999   0.99996   1.000
    Zn8     Zn   0.05412   0.24998   0.49997   1.000
    Zn9     Zn   0.05413   0.74996   0.50001   1.000
    Zn10    Zn   0.05413   0.74996   0.00000   1.000
    Zn11    Zn   0.55413   0.24999   0.99996   1.000
    Zn12    Zn   0.55414   0.24998   0.49997   1.000
    Zn13    Zn   0.55415   0.74996   0.50001   1.000
    Zn14    Zn   0.55414   0.74997   0.90000   1.000
    Zn15    Zn   0.44591   0.99997   0.25000   1.000
    O16     O    0.60836   0.03653   0.65095   1.000
    O17     O    0.60841   0.53648   0.15090   1.000
    O18     O    0.60839   0.53650   0.65094   1.000
    O19     O    0.34917   0.49250   0.32225   1.000
    O20     O    0.34924   0.49251   0.82230   1.000
    O21     O    0.34922   0.99246   0.32228   1.000
    O22     O    0.34933   0.99244   0.82236   1.000
    O23     O    0.84919   0.49250   0.32225   1.000
    C24     C    0.32467   0.45441   0.16985   1.000
    C25     C    0.32463   0.45441   0.66988   1.000
    C26     C    0.32467   0.95445   0.16983   1.000
    C27     C    0.32460   0.95443   0.66989   1.000
    C28     C    0.82469   0.45441   0.16985   1.000
    C29     C    0.82465   0.45441   0.66988   1.000
    C30     C    0.82469   0.95445   0.16983   1.000
    C31     C    0.82462   0.95443   0.66989   1.000
    C32     C    0.09589   0.07579   0.17996   1.000
    C33     C    0.09579   0.07589   0.67993   1.000
    C34     C    0.09592   0.57577   0.17997   1.000
    C35     C    0.09583   0.57585   0.67994   1.000
    C36     C    0.59591   0.07579   0.17996   1.000
    C37     C    0.59580   0.07589   0.67993   1.000
    C38     C    0.59594   0.57577   0.17997   1.000
    C39     C    0.59585   0.57585   0.67994   1.000
    C40     C    0.32457   0.04557   0.33009   1.000
    C41     C    0.32466   0.04556   0.83014   1.000
    C42     C    0.32458   0.54561   0.33006   1.000
    C43     C    0.32463   0.54563   0.83007   1.000
    C44     C    0.82459   0.04557   0.33009   1.000
    C45     C    0.82467   0.04556   0.83014   1.000
    C46     C    0.82459   0.54561   0.33006   1.000
    C47     C    0.82465   0.54563   0.83007   1.000
    C48     C    0.09573   0.42404   0.32008   1.000
    C49     C    0.09581   0.42412   0.82000   1.000
    C50     C    0.09573   0.92403   0.32009   1.000
    C51     C    0.09582   0.92413   0.82006   1.000
    C52     C    0.59575   0.42404   0.32008   1.000
    C53     C    0.59583   0.42412   0.82000   1.000
    C54     C    0.59574   0.92403   0.32009   1.000
    C55     C    0.59584   0.92413   0.82006   1.000
    C56     C    0.17534   0.16981   0.45450   1.000
    C57     C    0.17535   0.16978   0.95454   1.000
    C58     C    0.17538   0.66982   0.45450   1.000
    C59     C    0.17542   0.66981   0.95455   1.000
    C60     C    0.67536   0.16981   0.45450   1.000
    C61     C    0.67537   0.16979   0.95454   1.000
    C62     C    0.67540   0.66982   0.45450   1.000
    C63     C    0.67544   0.66981   0.95455   1.000
    C64     C    0.40412   0.17998   0.07577   1.000
    C65     C    0.40410   0.17998   0.57577   1.000
    C66     C    0.40418   0.67994   0.57583   1.000
    C67     C    0.90414   0.17998   0.07577   1.000
    C68     C    0.90412   0.17998   0.57577   1.000
    C69     C    0.90425   0.67993   0.07587   1.000
    C70     C    0.90420   0.67994   0.57583   1.000
    C71     C    0.17548   0.33009   0.04547   1.000
    C72     C    0.17549   0.33006   0.54550   1.000
    C73     C    0.17542   0.83011   0.04549   1.000
    C74     C    0.17547   0.83005   0.54557   1.000
    C75     C    0.67550   0.33009   0.04547   1.000
    C76     C    0.67551   0.33006   0.54550   1.000
    C77     C    0.67549   0.83005   0.54557   1.000
    C78     C    0.40428   0.32005   0.42406   1.000
    C79     C    0.40431   0.32006   0.92406   1.000
    C80     C    0.40423   0.82002   0.42413   1.000
    C81     C    0.40422   0.82002   0.92417   1.000
    C82     C    0.90430   0.32005   0.42406   1.000
    C83     C    0.90432   0.32006   0.92406   1.000
    C84     C    0.90425   0.82002   0.42413   1.000
    C85     C    0.90424   0.82002   0.92410   1.000
    O86     O    0.34936   0.00759   0.17756   1.000
    O87     O    0.34925   0.00756   0.67764   1.000
    O88     O    0.34934   0.50754   0.17756   1.000
    O89     O    0.34928   0.50753   0.67761   1.000
    O90     O    0.84938   0.00759   0.17756   1.000
    O91     O    0.84927   0.00756   0.67764   1.000
    O92     O    0.84936   0.50754   0.17756   1.000
    O93     O    0.84930   0.50753   0.67761   1.000
    O94     O    0.34130   0.40027   0.20587   1.000
    O95     O    0.34133   0.40027   0.70587   1.000
    O96     O    0.34127   0.90031   0.20584   1.000
    O97     O    0.34133   0.90028   0.70585   1.000
    O98     O    0.84131   0.40027   0.20587   1.000
    O99     O    0.84135   0.40027   0.70587   1.000
    O100    O    0.84129   0.90031   0.20584   1.000
    O101    O    0.84135   0.90028   0.70585   1.000
    O102    O    0.02626   0.07680   0.21914   1.000
    O103    O    0.02609   0.07695   0.71900   1.000
    O104    O    0.02628   0.57678   0.21914   1.000
    O105    O    0.02615   0.57689   0.71907   1.000
    O106    O    0.52628   0.07680   0.21914   1.000
    O107    O    0.52610   0.07695   0.71900   1.000
    O108    O    0.52630   0.57678   0.21914   1.000
    O109    O    0.52616   0.57689   0.71907   1.000
    O110    O    0.10837   0.03649   0.15091   1.000
    O111    O    0.10834   0.03653   0.65095   1.000
    O112    O    0.10840   0.53648   0.15090   1.000
    O113    O    0.10837   0.53650   0.65094   1.000
    O114    O    0.60839   0.03649   0.15091   1.000
    O115    O    0.84926   0.49251   0.82230   1.000
    O116    O    0.84923   0.99246   0.32228   1.000
    O117    O    0.84935   0.99244   0.82236   1.000
    O118    O    0.34131   0.09974   0.29419   1.000
    O119    O    0.34127   0.09972   0.79418   1.000
    O120    O    0.34135   0.59977   0.29416   1.000
    O121    O    0.34133   0.59979   0.79410   1.000
    O122    O    0.84132   0.09974   0.29419   1.000
    O123    O    0.84129   0.09972   0.79418   1.000
    O124    O    0.84137   0.59977   0.29416   1.000
    O125    O    0.84135   0.59979   0.79413   1.000
    O126    O    0.02596   0.42297   0.28099   1.000
    O127    O    0.02607   0.42308   0.78094   1.000
    O128    O    0.02597   0.92296   0.28099   1.000
    O129    O    0.02612   0.92310   0.78090   1.000
    O130    O    0.52598   0.42297   0.28099   1.000
    O131    O    0.52609   0.42308   0.78094   1.000
    O132    O    0.52599   0.92296   0.28099   1.000
    O133    O    0.52614   0.92310   0.78091   1.000
    O134    O    0.10834   0.46341   0.34905   1.000
    O135    O    0.10837   0.46345   0.84900   1.000
    O136    O    0.10833   0.96341   0.34904   1.000
    O137    O    0.10838   0.96346   0.84908   1.000
    O138    O    0.60835   0.46341   0.34905   1.000
    O139    O    0.60839   0.46345   0.84900   1.000
    O140    O    0.60835   0.96341   0.34900   1.000
    O141    O    0.60840   0.96346   0.84908   1.000
    O142    O    0.15061   0.17749   0.00764   1.000
    O143    O    0.15064   0.17748   0.50760   1.000
    O144    O    0.15069   0.67752   0.00764   1.000
    O145    O    0.15068   0.67749   0.50762   1.000
    O146    O    0.65063   0.17749   0.00764   1.000
    O147    O    0.65066   0.17748   0.50760   1.000
    O148    O    0.65071   0.67752   0.00764   1.000
    O149    O    0.65070   0.67749   0.50762   1.000
    O150    O    0.15869   0.20587   0.40040   1.000
    O151    O    0.15874   0.20584   0.90044   1.000
    O152    O    0.15867   0.70586   0.40040   1.000
    O153    O    0.15870   0.70583   0.90040   1.000
    O154    O    0.65871   0.20587   0.40040   1.000
    O155    O    0.65876   0.20584   0.90044   1.000
    O156    O    0.65869   0.70586   0.40040   1.000
    O157    O    0.65872   0.70583   0.90044   1.000
    O158    O    0.47376   0.21918   0.07676   1.000
    O159    O    0.47374   0.21918   0.57675   1.000
    O160    O    0.47386   0.71911   0.57684   1.000
    O161    O    0.97378   0.21918   0.07676   1.000
    O162    O    0.97376   0.21918   0.57675   1.000
    O163    O    0.97396   0.71907   0.07691   1.000
    O164    O    0.97388   0.71911   0.57684   1.000
    O165    O    0.39162   0.15089   0.03650   1.000
    O166    O    0.39161   0.15088   0.53651   1.000
    O167    O    0.39164   0.65090   0.53653   1.000
    O168    O    0.89164   0.15089   0.03650   1.000
    O169    O    0.89163   0.15088   0.53651   1.000
    O170    O    0.89168   0.65092   0.03654   1.000
    O171    O    0.89166   0.65090   0.53653   1.000
    O172    O    0.15087   0.32230   0.49243   1.000
    O173    O    0.15084   0.32232   0.99239   1.000
    O174    O    0.15085   0.82231   0.49246   1.000
    O175    O    0.15076   0.82236   0.99240   1.000
    O176    O    0.65088   0.32230   0.49243   1.000
    O177    O    0.65085   0.32232   0.99239   1.000
    O178    O    0.65087   0.82231   0.49246   1.000
    O179    O    0.15868   0.29415   0.09960   1.000
    O180    O    0.15865   0.29412   0.59964   1.000
    O181    O    0.15873   0.79413   0.09961   1.000
    O182    O    0.15867   0.79408   0.59968   1.000
    O183    O    0.65870   0.29415   0.09960   1.000
    O184    O    0.65867   0.29412   0.59964   1.000
    O185    O    0.65869   0.79407   0.59968   1.000
    O186    O    0.47405   0.28095   0.42301   1.000
    O187    O    0.47406   0.28095   0.92300   1.000
    O188    O    0.47398   0.78090   0.42310   1.000
    O189    O    0.47392   0.78086   0.92315   1.000
    O190    O    0.97407   0.28095   0.42301   1.000
    O191    O    0.97408   0.28095   0.92300   1.000
    O192    O    0.97400   0.78090   0.42310   1.000
    O193    O    0.97394   0.78086   0.92315   1.000
    O194    O    0.39168   0.34905   0.46340   1.000
    O195    O    0.39170   0.34904   0.96341   1.000
    O196    O    0.39167   0.84906   0.46343   1.000
    O197    O    0.39167   0.84906   0.96347   1.000
    O198    O    0.89170   0.34905   0.46340   1.000
    O199    O    0.89172   0.34904   0.96341   1.000
    O200    O    0.89168   0.84906   0.46343   1.000
    O201    O    0.89169   0.84906   0.96347   1.000
loop_
    _geom_bond_atom_site_label_1
    _geom_bond_atom_site_label_2
    _geom_bond_distance
    _geom_bond_site_symmetry_2
    _ccdc_geom_bond_type
    Zn10   O144      2.04271      .   S
    Zn10   O163      1.96522  1_455   S
    Zn10   O193      1.96379  1_454   S
    Zn10   O175      2.04293  1_554   S
    O144   C59       1.28763  1_554   S
    O146   C61       1.28785  1_554   S
    O146   Zn11      2.04305  1_554   S
    O142   C57       1.28786  1_554   S
    O142   Zn7       2.04303  1_554   S
    O148   C63       1.28763  1_554   S
    O168   C67       1.24621      .   S
    O165   C64       1.24621      .   S
    O170   C69       1.24624      .   S
    C75    O183      1.24431      .   S
    C75    O177      1.28757  1_554   S
    C71    O179      1.24432      .   S
    C71    O173      1.28757  1_554   S
    C73    O181      1.24423      .   S
    C73    O175      1.28764  1_554   S
    C64    O158      1.29090      .   S
    C67    O161      1.29091      .   S
    C69    O163      1.29092      .   S
    O158   Zn11      1.96469  1_554   S
    O161   Zn7       1.96442  1_654   S
    O17    C38       1.24624      .   S
    O112   C34       1.24624      .   S
    O110   C32       1.24622      .   S
    O114   C36       1.24622      .   S
    C26    O86       1.28813  1_565   S
    C26    O96       1.24414      .   S
    C30    O90       1.28813  1_565   S
    C30    O100      1.24414      .   S
    C24    O88       1.28786      .   S
    C24    O94       1.24411      .   S
    C28    O92       1.28786      .   S
    C28    O98       1.24411      .   S
    O90    Zn3       2.04304  1_545   S
    O86    Zn15      2.04305  1_545   S
    O92    Zn5       2.04315      .   S
    O88    Zn1       2.04315      .   S
    C32    O102      1.29102      .   S
    C36    O106      1.29102      .   S
    C38    O108      1.29092      .   S
    C34    O104      1.29092      .   S
    O106   Zn15      1.96458  1_545   S
    O104   Zn5       1.96426  1_455   S
    O102   Zn3       1.96431  1_445   S
    O108   Zn1       1.96453      .   S
    Zn5    O126      1.96474  1_655   S
    Zn5    O23       2.04277      .   S
    Zn1    O130      1.96501      .   S
    Zn1    O19       2.04278      .   S
    Zn15   O132      1.96537      .   S
    Zn15   O21       2.04254      .   S
    Zn3    O128      1.96510  1_655   S
    Zn3    O116      2.04253      .   S
    O132   C54       1.29097      .   S
    O130   C52       1.29100      .   S
    O128   C50       1.29096      .   S
    O126   C48       1.29100      .   S
    O124   C46       1.24424      .   S
    O120   C42       1.24426      .   S
    O122   C44       1.24423      .   S
    O118   C40       1.24423      .   S
    C48    O134      1.24626      .   S
    C52    O138      1.24626      .   S
    C54    O140      1.24555      .   S
    C50    O136      1.24618      .   S
    O23    C46       1.28783      .   S
    O19    C42       1.28783      .   S
    O116   C44       1.28818  1_565   S
    O21    C40       1.28817  1_565   S
    O154   C60       1.24424      .   S
    O150   C56       1.24424      .   S
    O152   C58       1.24421      .   S
    O156   C62       1.24420      .   S
    O190   C82       1.29090      .   S
    O190   Zn8       1.96473  1_655   S
    O186   C78       1.29090      .   S
    O186   Zn12      1.96499      .   S
    O188   C80       1.29090      .   S
    O188   Zn13      1.96472      .   S
    O192   C84       1.29091      .   S
    O192   Zn9       1.96445  1_655   S
    C78    O194      1.24637      .   S
    C82    O198      1.24637      .   S
    C80    O196      1.24620      .   S
    C84    O200      1.24620      .   S
    C62    O149      1.28793      .   S
    C60    O147      1.28747      .   S
    C58    O145      1.28793      .   S
    C56    O143      1.28747      .   S
    O172   Zn8       2.04283      .   S
    O172   C72       1.28718      .   S
    O176   Zn12      2.04282      .   S
    O176   C76       1.28719      .   S
    O174   Zn9       2.04292      .   S
    O174   C74       1.28782      .   S
    O178   Zn13      2.04292      .   S
    O178   C77       1.28782      .   S
    Zn12   O147      2.04329      .   S
    Zn12   O159      1.96453      .   S
    Zn8    O143      2.04328      .   S
    Zn8    O162      1.96427  1_455   S
    Zn9    O145      2.04320      .   S
    Zn9    O164      1.96440  1_455   S
    Zn13   O149      2.04320      .   S
    Zn13   O160      1.96468      .   S
    O169   C68       1.24628      .   S
    O166   C65       1.24628      .   S
    O167   C66       1.24625      .   S
    O171   C70       1.24625      .   S
    C72    O180      1.24457      .   S
    C76    O184      1.24458      .   S
    C77    O185      1.24420      .   S
    C74    O182      1.24420      .   S
    C68    O162      1.29088      .   S
    C65    O159      1.29088      .   S
    C70    O164      1.29090      .   S
    C66    O160      1.29089      .   S
    O18    C39       1.24616      .   S
    O113   C35       1.24616      .   S
    O111   C33       1.24628      .   S
    O16    C37       1.24628      .   S
    C25    O89       1.28781      .   S
    C25    O95       1.24422      .   S
    C29    O93       1.28782      .   S
    C29    O99       1.24422      .   S
    C27    O87       1.28810  1_565   S
    C27    O97       1.24419      .   S
    C31    O91       1.28810  1_565   S
    C31    O101      1.24419      .   S
    O93    Zn6       2.04304      .   S
    O89    Zn2       2.04305      .   S
    O87    Zn0       2.04294      .   S
    O91    Zn4       2.04294      .   S
    C37    O107      1.29030      .   S
    C33    O103      1.29030      .   S
    C39    O109      1.29103      .   S
    C35    O105      1.29102      .   S
    O107   Zn0       1.96510      .   S
    O103   Zn4       1.96483  1_455   S
    O109   Zn2       1.96481      .   S
    O105   Zn6       1.96455  1_455   S
    Zn6    O127      1.96439  1_655   S
    Zn6    O115      2.04290      .   S
    Zn2    O131      1.96466      .   S
    Zn2    O20       2.04290      .   S
    Zn0    O133      1.96491  1_545   S
    Zn0    O22       2.04263  1_545   S
    Zn4    O129      1.96462  1_645   S
    Zn4    O117      2.04263  1_545   S
    O129   C51       1.29114      .   S
    O133   C55       1.29098      .   S
    O131   C53       1.29007      .   S
    O127   C49       1.29007      .   S
    O121   C43       1.24438      .   S
    O125   C47       1.24415      .   S
    O123   C45       1.24417      .   S
    O119   C41       1.24417      .   S
    C49    O135      1.24591      .   S
    C53    O139      1.24593      .   S
    C55    O141      1.24632      .   S
    C51    O137      1.24632      .   S
    O20    C43       1.28786      .   S
    O115   C47       1.28786      .   S
    O22    C41       1.28829  1_565   S
    O117   C45       1.28829  1_565   S
    O153   C59       1.24489      .   S
    O151   C57       1.24404      .   S
    O157   C63       1.24421      .   S
    O157   Zn14      1.72501      .   S
    O155   C61       1.24403      .   S
    O191   C83       1.29093      .   S
    O191   Zn7       1.96454  1_655   S
    O187   C79       1.29093      .   S
    O187   Zn11      1.96481      .   S
    O193   C85       1.29057      .   S
    O189   C81       1.29094      .   S
    O189   Zn14      1.46315      .   S
    C79    O195      1.24628      .   S
    C83    O199      1.24628      .   S
    C85    O201      1.24757      .   S
    C81    O197      1.24623      .   S
    O173   Zn7       2.04277      .   S
    O177   Zn11      2.04278      .   S
