# CIF file generated by openbabel 2.4.90, see http://openbabel.sf.net
data_I
_chemical_name_common ''
_cell_length_a 13.592
_cell_length_b 22.212
_cell_length_c 22.222
_cell_angle_alpha 72.165
_cell_angle_beta 90.017
_cell_angle_gamma 89.997
_space_group_name_H-M_alt 'P 1'
_space_group_name_Hall 'P 1'
loop_
    _symmetry_equiv_pos_as_xyz
    x,y,z
loop_
    _atom_site_label
    _atom_site_type_symbol
    _atom_site_fract_x
    _atom_site_fract_y
    _atom_site_fract_z
    _atom_site_occupancy
    C0      C    0.32467   0.45441   0.16985   1.000
    C1      C    0.32463   0.45441   0.66988   1.000
    C2      C    0.32467   0.95445   0.16983   1.000
    C3      C    0.32460   0.95443   0.66989   1.000
    C4      C    0.82469   0.45441   0.16985   1.000
    C5      C    0.82465   0.45441   0.66988   1.000
    C6      C    0.82469   0.95445   0.16983   1.000
    C7      C    0.82462   0.95443   0.66989   1.000
    C8      C    0.09589   0.07579   0.17996   1.000
    C9      C    0.09579   0.07589   0.67993   1.000
    C10     C    0.09592   0.57577   0.17997   1.000
    C11     C    0.09583   0.57585   0.67994   1.000
    C12     C    0.59591   0.07579   0.17996   1.000
    C13     C    0.59580   0.07589   0.67993   1.000
    C14     C    0.59594   0.57577   0.17997   1.000
    C15     C    0.59585   0.57585   0.67994   1.000
    C16     C    0.32457   0.04557   0.33009   1.000
    C17     C    0.32466   0.04556   0.83014   1.000
    C18     C    0.32458   0.54561   0.33006   1.000
    C19     C    0.32463   0.54563   0.83007   1.000
    C20     C    0.82459   0.04557   0.33009   1.000
    C21     C    0.82467   0.04556   0.83014   1.000
    C22     C    0.82459   0.54561   0.33006   1.000
    C23     C    0.82465   0.54563   0.83007   1.000
    C24     C    0.09573   0.42404   0.32008   1.000
    C25     C    0.09581   0.42412   0.82000   1.000
    C26     C    0.09573   0.92403   0.32009   1.000
    C27     C    0.09582   0.92413   0.82006   1.000
    C28     C    0.59575   0.42404   0.32008   1.000
    C29     C    0.59583   0.42412   0.82000   1.000
    C30     C    0.59574   0.92403   0.32009   1.000
    C31     C    0.59584   0.92413   0.82006   1.000
    C32     C    0.17534   0.16981   0.45450   1.000
    C33     C    0.17535   0.16978   0.95454   1.000
    C34     C    0.17538   0.66982   0.45450   1.000
    C35     C    0.17542   0.66981   0.95455   1.000
    C36     C    0.67536   0.16981   0.45450   1.000
    C37     C    0.67537   0.16979   0.95454   1.000
    C38     C    0.67540   0.66982   0.45450   1.000
    C39     C    0.67544   0.66981   0.95455   1.000
    C40     C    0.40412   0.17998   0.07577   1.000
    C41     C    0.40410   0.17998   0.57577   1.000
    C42     C    0.40418   0.67994   0.57583   1.000
    C43     C    0.90414   0.17998   0.07577   1.000
    C44     C    0.90412   0.17998   0.57577   1.000
    C45     C    0.90425   0.67993   0.07587   1.000
    C46     C    0.90420   0.67994   0.57583   1.000
    C47     C    0.17548   0.33009   0.04547   1.000
    C48     C    0.17549   0.33006   0.54550   1.000
    C49     C    0.17542   0.83011   0.04549   1.000
    C50     C    0.17547   0.83005   0.54557   1.000
    C51     C    0.67550   0.33009   0.04547   1.000
    C52     C    0.67551   0.33006   0.54550   1.000
    C53     C    0.67549   0.83005   0.54557   1.000
    C54     C    0.40428   0.32005   0.42406   1.000
    C55     C    0.40431   0.32006   0.92406   1.000
    C56     C    0.40423   0.82002   0.42413   1.000
    C57     C    0.40422   0.82002   0.92417   1.000
    C58     C    0.90430   0.32005   0.42406   1.000
    C59     C    0.90432   0.32006   0.92406   1.000
    C60     C    0.90425   0.82002   0.42413   1.000
    C61     C    0.90424   0.82002   0.92410   1.000
