# CIF file generated by openbabel 2.4.90, see http://openbabel.sf.net
data_I
_chemical_name_common ''
_cell_length_a 13.592
_cell_length_b 22.212
_cell_length_c 22.222
_cell_angle_alpha 72.165
_cell_angle_beta 90.017
_cell_angle_gamma 89.997
_space_group_name_H-M_alt 'P 1'
_space_group_name_Hall 'P 1'
loop_
    _symmetry_equiv_pos_as_xyz
    x,y,z
loop_
    _atom_site_label
    _atom_site_type_symbol
    _atom_site_fract_x
    _atom_site_fract_y
    _atom_site_fract_z
    _atom_site_occupancy
    N0      N    0.74996   0.57892   0.42100   1.000
    N1      N    0.75006   0.85238   0.85240   1.000
    N2      N    0.25002   0.35236   0.35236   1.000
    N3      N    0.75016   0.57897   0.92108   1.000
    N4      N    0.25020   0.42098   0.07887   1.000
    N5      N    0.25004   0.85238   0.85240   1.000
    N6      N    0.75004   0.35236   0.35236   1.000
    N7      N    0.25003   0.14757   0.14756   1.000
    N8      N    0.24984   0.07886   0.42092   1.000
    N9      N    0.25009   0.35242   0.85233   1.000
    N10     N    0.24994   0.57892   0.42100   1.000
    N11     N    0.24997   0.85231   0.35243   1.000
    N12     N    0.75013   0.64753   0.14763   1.000
    N13     N    0.74986   0.07886   0.42100   1.000
    N14     N    0.24996   0.14763   0.64753   1.000
    N15     N    0.25003   0.64758   0.64758   1.000
    N16     N    0.25014   0.57897   0.92107   1.000
    N17     N    0.75011   0.42097   0.57895   1.000
    N18     N    0.25005   0.92107   0.07888   1.000
    N19     N    0.25001   0.07885   0.92112   1.000
    N20     N    0.75011   0.35242   0.85232   1.000
    N21     N    0.74996   0.92102   0.57901   1.000
    N22     N    0.75005   0.64758   0.64758   1.000
    N23     N    0.74998   0.14763   0.64753   1.000
    N24     N    0.75005   0.14757   0.14756   1.000
    N25     N    0.75003   0.07886   0.92112   1.000
    N26     N    0.25009   0.42097   0.57895   1.000
    N27     N    0.24994   0.92102   0.57901   1.000
    N28     N    0.75022   0.42098   0.07887   1.000
    N29     N    0.74999   0.85231   0.35236   1.000
    Zr30    Zr   0.45670   0.50000   0.74998   1.000
    O31     O    0.36522   0.46965   0.67946   1.000
    O32     O    0.57389   0.56264   0.70593   1.000
    O33     O    0.36525   0.53034   0.82051   1.000
    O34     O    0.57390   0.43736   0.79399   1.000
    Zr35    Zr   0.95670   0.50000   0.74998   1.000
    O36     O    0.07389   0.43736   0.79400   1.000
    O37     O    0.86523   0.46965   0.67946   1.000
    O38     O    0.07388   0.56264   0.70594   1.000
    O39     O    0.86526   0.53034   0.82051   1.000
    Zr40    Zr   0.95669   0.00001   0.75000   1.000
    O41     O    0.86518   0.96967   0.67949   1.000
    O42     O    0.07385   0.06266   0.70593   1.000
    O43     O    0.86523   0.03029   0.82055   1.000
    O44     O    0.07388   0.93735   0.79405   1.000
    Zr45    Zr   0.45669   0.00001   0.75000   1.000
    O46     O    0.36517   0.96967   0.67949   1.000
    O47     O    0.57386   0.06266   0.70593   1.000
    O48     O    0.36522   0.03029   0.82055   1.000
    O49     O    0.57389   0.93735   0.79405   1.000
    Zr50    Zr   0.45670   0.49996   0.24999   1.000
    O51     O    0.36527   0.46963   0.17944   1.000
    O52     O    0.57393   0.56259   0.20597   1.000
    O53     O    0.36517   0.53030   0.32049   1.000
    O54     O    0.57386   0.43730   0.29403   1.000
    Zr55    Zr   0.54335   0.74996   0.50001   1.000
    O56     O    0.63484   0.82048   0.53035   1.000
    O57     O    0.42616   0.79399   0.43737   1.000
    O58     O    0.42617   0.70593   0.56264   1.000
    O59     O    0.63482   0.67943   0.46968   1.000
    Zr60    Zr   0.04334   0.24998   0.99996   1.000
    O61     O    0.13490   0.32049   0.03026   1.000
    O62     O    0.92622   0.29405   0.93729   1.000
    O63     O    0.92616   0.20594   0.06260   1.000
    O64     O    0.13480   0.17941   0.96970   1.000
    Zr65    Zr   0.04335   0.74996   0.50001   1.000
    O66     O    0.92618   0.70593   0.56264   1.000
    O67     O    0.92617   0.79399   0.43735   1.000
    O68     O    0.13483   0.82048   0.53035   1.000
    O69     O    0.13481   0.67943   0.46968   1.000
    Zr70    Zr   0.54334   0.24998   0.49996   1.000
    O71     O    0.42613   0.20596   0.56259   1.000
    O72     O    0.42618   0.29402   0.43731   1.000
    O73     O    0.63477   0.17942   0.46966   1.000
    O74     O    0.63488   0.32048   0.53029   1.000
    Zr75    Zr   0.45669   0.99997   0.24999   1.000
    O76     O    0.36523   0.96968   0.17943   1.000
    O77     O    0.57390   0.06261   0.20594   1.000
    O78     O    0.36514   0.03027   0.32048   1.000
    O79     O    0.57384   0.93729   0.29404   1.000
    Zr80    Zr   0.54412   0.75044   0.93906   1.000
    O81     O    0.63526   0.67968   0.93924   1.000
    O82     O    0.42656   0.79425   0.90689   1.000
    Zr83    Zr   0.04335   0.74997   0.00001   1.000
    O84     O    0.92622   0.70591   0.06266   1.000
    O85     O    0.13483   0.82052   0.03029   1.000
    O86     O    0.92619   0.79402   0.93736   1.000
    O87     O    0.13487   0.67944   0.96972   1.000
    Zr88    Zr   0.04334   0.24998   0.49996   1.000
    O89     O    0.13487   0.32048   0.53029   1.000
    O90     O    0.92613   0.20596   0.56259   1.000
    O91     O    0.13476   0.17942   0.46964   1.000
    O92     O    0.92619   0.29402   0.43731   1.000
    Zr93    Zr   0.95670   0.49996   0.24999   1.000
    O94     O    0.86528   0.46963   0.17944   1.000
    O95     O    0.86518   0.53030   0.32049   1.000
    O96     O    0.07386   0.43730   0.29403   1.000
    Zr97    Zr   0.54335   0.24998   0.99996   1.000
    O98     O    0.42615   0.20594   0.06260   1.000
    O99     O    0.42621   0.29405   0.93730   1.000
    O100    O    0.63481   0.17941   0.96970   1.000
    O101    O    0.63491   0.32049   0.03026   1.000
    Zr102   Zr   0.95669   0.99997   0.24999   1.000
    O103    O    0.07389   0.06261   0.20594   1.000
    O104    O    0.86515   0.03027   0.32050   1.000
    O105    O    0.07383   0.93729   0.29406   1.000
loop_
    _geom_bond_atom_site_label_1
    _geom_bond_atom_site_label_2
    _geom_bond_distance
    _geom_bond_site_symmetry_2
    _ccdc_geom_bond_type
    Zr30   O31       2.25871      .   S
    N26    O31       3.17569      .   S
    Zr30   O32       2.14426      .   S
    N22    O32       3.07864      .   S
    Zr30   O33       2.25915      .   S
    N16    O33       3.17627      .   S
    Zr30   O34       2.14378      .   S
    N20    O34       3.07816      .   S
    Zr35   O36       2.14373  1_655   S
    N9     O36       3.07804      .   S
    Zr35   O37       2.25865      .   S
    N17    O37       3.17561      .   S
    Zr35   O38       2.14417  1_655   S
    N15    O38       3.07854      .   S
    Zr35   O39       2.25910      .   S
    N3     O39       3.17630      .   S
    Zr40   O41       2.25861  1_545   S
    N21    O41       3.17533      .   S
    Zr40   O42       2.14430  1_655   S
    N14    O42       3.07864      .   S
    Zr40   O43       2.25900      .   S
    N25    O43       3.17624      .   S
    Zr40   O44       2.14389  1_645   S
    N5     O44       3.07816      .   S
    Zr45   O46       2.25868  1_545   S
    N27    O46       3.17542      .   S
    Zr45   O47       2.14440      .   S
    N23    O47       3.07874      .   S
    Zr45   O48       2.25906      .   S
    N19    O48       3.17629      .   S
    Zr45   O49       2.14399  1_545   S
    N1     O49       3.07826      .   S
    Zr50   O51       2.25873      .   S
    N4     O51       3.17592      .   S
    Zr50   O52       2.14444      .   S
    N12    O52       3.07888      .   S
    Zr50   O53       2.25912      .   S
    N10    O53       3.17600      .   S
    Zr50   O54       2.14377      .   S
    N6     O54       3.07796      .   S
    Zr55   O56       2.25854      .   S
    N21    O56       3.17544      .   S
    Zr55   O57       2.14384      .   S
    N11    O57       3.07808      .   S
    Zr55   O58       2.14428      .   S
    N15    O58       3.07873      .   S
    Zr55   O59       2.25859      .   S
    N0     O59       3.17551      .   S
    Zr60   O61       2.25838  1_556   S
    N4     O61       3.17509      .   S
    Zr60   O62       2.14371  1_455   S
    N20    O62       3.07797      .   S
    Zr60   O63       2.14436  1_456   S
    N24    O63       3.07885      .   S
    Zr60   O64       2.25843      .   S
    N19    O64       3.17555      .   S
    Zr65   O66       2.14418  1_455   S
    N22    O66       3.07862      .   S
    Zr65   O67       2.14394  1_455   S
    N29    O67       3.07850      .   S
    Zr65   O68       2.25847      .   S
    N27    O68       3.17537      .   S
    Zr65   O69       2.25853      .   S
    N10    O69       3.17548      .   S
    Zr70   O71       2.14446      .   S
    N14    O71       3.07895      .   S
    Zr70   O72       2.14379      .   S
    N2     O72       3.07792      .   S
    Zr70   O73       2.25857      .   S
    N13    O73       3.17578      .   S
    Zr70   O74       2.25851      .   S
    N17    O74       3.17525      .   S
    Zr75   O76       2.25863      .   S
    N18    O76       3.17578      .   S
    Zr75   O77       2.14449  1_565   S
    N24    O77       3.07893      .   S
    Zr75   O78       2.25876  1_565   S
    N8     O78       3.17487      .   S
    Zr75   O79       2.14387      .   S
    N29    O79       3.07792      .   S
    Zr80   O81       2.00023      .   S
    N3     O81       2.85640      .   S
    Zr80   O82       1.89321      .   S
    N5     O82       2.81604      .   S
    Zr83   O84       2.14428  1_455   S
    N12    O84       3.07868      .   S
    Zr83   O85       2.25836      .   S
    N18    O85       3.17541      .   S
    Zr83   O86       2.14382  1_454   S
    N1     O86       3.07793      .   S
    Zr83   O87       2.25845  1_554   S
    N16    O87       3.17528      .   S
    Zr88   O89       2.25843      .   S
    N26    O89       3.17516      .   S
    Zr88   O90       2.14436  1_455   S
    N23    O90       3.07885      .   S
    Zr88   O91       2.25872      .   S
    N8     O91       3.17644      .   S
    Zr88   O92       2.14366  1_455   S
    N6     O92       3.07783      .   S
    Zr93   O94       2.25867      .   S
    N28    O94       3.17586      .   S
    Zr93   O95       2.25906      .   S
    N0     O95       3.17597      .   S
    Zr93   O96       2.14367  1_655   S
    N2     O96       3.07785      .   S
    Zr97   O98       2.14446  1_556   S
    N7     O98       3.07896      .   S
    Zr97   O99       2.14379      .   S
    N9     O99       3.07801      .   S
    Zr97   O100      2.25849      .   S
    N25    O100      3.17561      .   S
    Zr97   O101      2.25845  1_556   S
    N28    O101      3.17514      .   S
    Zr102  O103      2.14440  1_665   S
    N7     O103      3.07884      .   S
    Zr102  O104      2.25900  1_565   S
    N13    O104      3.17583      .   S
    Zr102  O105      2.14386  1_655   S
    N11    O105      3.07807      .   S
