# CIF file generated by openbabel 2.4.90, see http://openbabel.sf.net
data_I
_chemical_name_common ''
_cell_length_a 13.592
_cell_length_b 22.212
_cell_length_c 22.222
_cell_angle_alpha 72.165
_cell_angle_beta 90.017
_cell_angle_gamma 89.997
_space_group_name_H-M_alt 'P 1'
_space_group_name_Hall 'P 1'
loop_
    _symmetry_equiv_pos_as_xyz
    x,y,z
loop_
    _atom_site_label
    _atom_site_type_symbol
    _atom_site_fract_x
    _atom_site_fract_y
    _atom_site_fract_z
    _atom_site_occupancy
    Zr0     Zr   0.44591   0.99997   0.25000   1.000
    Zr1     Zr   0.44591   0.00003   0.75000   1.000
    Zr2     Zr   0.44591   0.49997   0.24999   1.000
    Zr3     Zr   0.44591   0.50001   0.74999   1.000
    Zr4     Zr   0.94593   0.99997   0.25000   1.000
    Zr5     Zr   0.94593   0.00003   0.75000   1.000
    Zr6     Zr   0.94592   0.49997   0.24999   1.000
    Zr7     Zr   0.94593   0.50001   0.74999   1.000
    Zr8     Zr   0.05411   0.24999   0.99996   1.000
    Zr9     Zr   0.05412   0.24998   0.49997   1.000
    Zr10    Zr   0.05413   0.74996   0.50001   1.000
    Zr11    Zr   0.05413   0.74996   0.00000   1.000
    Zr12    Zr   0.55413   0.24999   0.99996   1.000
    Zr13    Zr   0.55414   0.24998   0.49997   1.000
    Zr14    Zr   0.55415   0.74996   0.50001   1.000
    Zr15    Zr   0.55414   0.74997   0.90000   1.000
    Zr16    Zr   0.32467   0.45441   0.16985   1.000
    Zr17    Zr   0.32463   0.45441   0.66988   1.000
    Zr18    Zr   0.32467   0.95445   0.16983   1.000
    Zr19    Zr   0.32460   0.95443   0.66989   1.000
    Zr20    Zr   0.82469   0.45441   0.16985   1.000
    Zr21    Zr   0.82465   0.45441   0.66988   1.000
    Zr22    Zr   0.82469   0.95445   0.16983   1.000
    Zr23    Zr   0.82462   0.95443   0.66989   1.000
    Zr24    Zr   0.09589   0.07579   0.17996   1.000
    Zr25    Zr   0.09579   0.07589   0.67993   1.000
    Zr26    Zr   0.09592   0.57577   0.17997   1.000
    Zr27    Zr   0.09583   0.57585   0.67994   1.000
    Zr28    Zr   0.59591   0.07579   0.17996   1.000
    Zr29    Zr   0.59580   0.07589   0.67993   1.000
    Zr30    Zr   0.59594   0.57577   0.17997   1.000
    Zr31    Zr   0.59585   0.57585   0.67994   1.000
    Zr32    Zr   0.32457   0.04557   0.33009   1.000
    Zr33    Zr   0.32466   0.04556   0.83014   1.000
    Zr34    Zr   0.32458   0.54561   0.33006   1.000
    Zr35    Zr   0.32463   0.54563   0.83007   1.000
    Zr36    Zr   0.82459   0.04557   0.33009   1.000
    Zr37    Zr   0.82467   0.04556   0.83014   1.000
    Zr38    Zr   0.82459   0.54561   0.33006   1.000
    Zr39    Zr   0.82465   0.54563   0.83007   1.000
    Zr40    Zr   0.09573   0.42404   0.32008   1.000
    Zr41    Zr   0.09581   0.42412   0.82000   1.000
    Zr42    Zr   0.09573   0.92403   0.32009   1.000
    Zr43    Zr   0.09582   0.92413   0.82006   1.000
    Zr44    Zr   0.59575   0.42404   0.32008   1.000
    Zr45    Zr   0.59583   0.42412   0.82000   1.000
    Zr46    Zr   0.59574   0.92403   0.32009   1.000
    Zr47    Zr   0.59584   0.92413   0.82006   1.000
    Zr48    Zr   0.17534   0.16981   0.45450   1.000
    Zr49    Zr   0.17535   0.16978   0.95454   1.000
    Zr50    Zr   0.17538   0.66982   0.45450   1.000
    Zr51    Zr   0.17542   0.66981   0.95455   1.000
    Zr52    Zr   0.67536   0.16981   0.45450   1.000
    Zr53    Zr   0.67537   0.16979   0.95454   1.000
    Zr54    Zr   0.67540   0.66982   0.45450   1.000
    Zr55    Zr   0.67544   0.66981   0.95455   1.000
    Zr56    Zr   0.40412   0.17998   0.07577   1.000
    Zr57    Zr   0.40410   0.17998   0.57577   1.000
    Zr58    Zr   0.40418   0.67994   0.57583   1.000
    Zr59    Zr   0.90414   0.17998   0.07577   1.000
    Zr60    Zr   0.90412   0.17998   0.57577   1.000
    Zr61    Zr   0.90425   0.67993   0.07587   1.000
    Zr62    Zr   0.90420   0.67994   0.57583   1.000
    Zr63    Zr   0.17548   0.33009   0.04547   1.000
    Zr64    Zr   0.17549   0.33006   0.54550   1.000
    Zr65    Zr   0.17542   0.83011   0.04549   1.000
    Zr66    Zr   0.17547   0.83005   0.54557   1.000
    Zr67    Zr   0.67550   0.33009   0.04547   1.000
    Zr68    Zr   0.67551   0.33006   0.54550   1.000
    Zr69    Zr   0.67549   0.83005   0.54557   1.000
    Zr70    Zr   0.40428   0.32005   0.42406   1.000
    Zr71    Zr   0.40431   0.32006   0.92406   1.000
    Zr72    Zr   0.40423   0.82002   0.42413   1.000
    Zr73    Zr   0.40422   0.82002   0.92417   1.000
    Zr74    Zr   0.90430   0.32005   0.42406   1.000
    Zr75    Zr   0.90432   0.32006   0.92406   1.000
    Zr76    Zr   0.90425   0.82002   0.42413   1.000
    Zr77    Zr   0.90424   0.82002   0.92410   1.000
    Zr78    Zr   0.34936   0.00759   0.17756   1.000
    Zr79    Zr   0.34925   0.00756   0.67764   1.000
    Zr80    Zr   0.34934   0.50754   0.17756   1.000
    Zr81    Zr   0.34928   0.50753   0.67761   1.000
    Zr82    Zr   0.84938   0.00759   0.17756   1.000
    Zr83    Zr   0.84927   0.00756   0.67764   1.000
    Zr84    Zr   0.84936   0.50754   0.17756   1.000
    Zr85    Zr   0.84930   0.50753   0.67761   1.000
    Zr86    Zr   0.34130   0.40027   0.20587   1.000
    Zr87    Zr   0.34133   0.40027   0.70587   1.000
    Zr88    Zr   0.34127   0.90031   0.20584   1.000
    Zr89    Zr   0.34133   0.90028   0.70585   1.000
    Zr90    Zr   0.84131   0.40027   0.20587   1.000
    Zr91    Zr   0.84135   0.40027   0.70587   1.000
    Zr92    Zr   0.84129   0.90031   0.20584   1.000
    Zr93    Zr   0.84135   0.90028   0.70585   1.000
    Zr94    Zr   0.02626   0.07680   0.21914   1.000
    Zr95    Zr   0.02609   0.07695   0.71900   1.000
    Zr96    Zr   0.02628   0.57678   0.21914   1.000
    Zr97    Zr   0.02615   0.57689   0.71907   1.000
    Zr98    Zr   0.52628   0.07680   0.21914   1.000
    Zr99    Zr   0.52610   0.07695   0.71900   1.000
    Zr100   Zr   0.52630   0.57678   0.21914   1.000
    Zr101   Zr   0.52616   0.57689   0.71907   1.000
    Zr102   Zr   0.10837   0.03649   0.15091   1.000
    Zr103   Zr   0.10834   0.03653   0.65095   1.000
    Zr104   Zr   0.10840   0.53648   0.15090   1.000
    Zr105   Zr   0.10837   0.53650   0.65094   1.000
    Zr106   Zr   0.60839   0.03649   0.15091   1.000
    Zr107   Zr   0.60836   0.03653   0.65095   1.000
    Zr108   Zr   0.60841   0.53648   0.15090   1.000
    Zr109   Zr   0.60839   0.53650   0.65094   1.000
    Zr110   Zr   0.34917   0.49250   0.32225   1.000
    Zr111   Zr   0.34924   0.49251   0.82230   1.000
    Zr112   Zr   0.34922   0.99246   0.32228   1.000
    Zr113   Zr   0.34933   0.99244   0.82236   1.000
    Zr114   Zr   0.84919   0.49250   0.32225   1.000
    Zr115   Zr   0.84926   0.49251   0.82230   1.000
    Zr116   Zr   0.84923   0.99246   0.32228   1.000
    Zr117   Zr   0.84935   0.99244   0.82236   1.000
    Zr118   Zr   0.34131   0.09974   0.29419   1.000
    Zr119   Zr   0.34127   0.09972   0.79418   1.000
    Zr120   Zr   0.34135   0.59977   0.29416   1.000
    Zr121   Zr   0.34133   0.59979   0.79410   1.000
    Zr122   Zr   0.84132   0.09974   0.29419   1.000
    Zr123   Zr   0.84129   0.09972   0.79418   1.000
    Zr124   Zr   0.84137   0.59977   0.29416   1.000
    Zr125   Zr   0.84135   0.59979   0.79413   1.000
    Zr126   Zr   0.02596   0.42297   0.28099   1.000
    Zr127   Zr   0.02607   0.42308   0.78094   1.000
    Zr128   Zr   0.02597   0.92296   0.28099   1.000
    Zr129   Zr   0.02612   0.92310   0.78090   1.000
    Zr130   Zr   0.52598   0.42297   0.28099   1.000
    Zr131   Zr   0.52609   0.42308   0.78094   1.000
    Zr132   Zr   0.52599   0.92296   0.28099   1.000
    Zr133   Zr   0.52614   0.92310   0.78091   1.000
    Zr134   Zr   0.10834   0.46341   0.34905   1.000
    Zr135   Zr   0.10837   0.46345   0.84900   1.000
    Zr136   Zr   0.10833   0.96341   0.34904   1.000
    Zr137   Zr   0.10838   0.96346   0.84908   1.000
    Zr138   Zr   0.60835   0.46341   0.34905   1.000
    Zr139   Zr   0.60839   0.46345   0.84900   1.000
    Zr140   Zr   0.60835   0.96341   0.34900   1.000
    Zr141   Zr   0.60840   0.96346   0.84908   1.000
    Zr142   Zr   0.15061   0.17749   0.00764   1.000
    Zr143   Zr   0.15064   0.17748   0.50760   1.000
    Zr144   Zr   0.15069   0.67752   0.00764   1.000
    Zr145   Zr   0.15068   0.67749   0.50762   1.000
    Zr146   Zr   0.65063   0.17749   0.00764   1.000
    Zr147   Zr   0.65066   0.17748   0.50760   1.000
    Zr148   Zr   0.65071   0.67752   0.00764   1.000
    Zr149   Zr   0.65070   0.67749   0.50762   1.000
    Zr150   Zr   0.15869   0.20587   0.40040   1.000
    Zr151   Zr   0.15874   0.20584   0.90044   1.000
    Zr152   Zr   0.15867   0.70586   0.40040   1.000
    Zr153   Zr   0.15870   0.70583   0.90040   1.000
    Zr154   Zr   0.65871   0.20587   0.40040   1.000
    Zr155   Zr   0.65876   0.20584   0.90044   1.000
    Zr156   Zr   0.65869   0.70586   0.40040   1.000
    Zr157   Zr   0.65872   0.70583   0.90044   1.000
    Zr158   Zr   0.47376   0.21918   0.07676   1.000
    Zr159   Zr   0.47374   0.21918   0.57675   1.000
    Zr160   Zr   0.47386   0.71911   0.57684   1.000
    Zr161   Zr   0.97378   0.21918   0.07676   1.000
    Zr162   Zr   0.97376   0.21918   0.57675   1.000
    Zr163   Zr   0.97396   0.71907   0.07691   1.000
    Zr164   Zr   0.97388   0.71911   0.57684   1.000
    Zr165   Zr   0.39162   0.15089   0.03650   1.000
    Zr166   Zr   0.39161   0.15088   0.53651   1.000
    Zr167   Zr   0.39164   0.65090   0.53653   1.000
    Zr168   Zr   0.89164   0.15089   0.03650   1.000
    Zr169   Zr   0.89163   0.15088   0.53651   1.000
    Zr170   Zr   0.89168   0.65092   0.03654   1.000
    Zr171   Zr   0.89166   0.65090   0.53653   1.000
    Zr172   Zr   0.15087   0.32230   0.49243   1.000
    Zr173   Zr   0.15084   0.32232   0.99239   1.000
    Zr174   Zr   0.15085   0.82231   0.49246   1.000
    Zr175   Zr   0.15076   0.82236   0.99240   1.000
    Zr176   Zr   0.65088   0.32230   0.49243   1.000
    Zr177   Zr   0.65085   0.32232   0.99239   1.000
    Zr178   Zr   0.65087   0.82231   0.49246   1.000
    Zr179   Zr   0.15868   0.29415   0.09960   1.000
    Zr180   Zr   0.15865   0.29412   0.59964   1.000
    Zr181   Zr   0.15873   0.79413   0.09961   1.000
    Zr182   Zr   0.15867   0.79408   0.59968   1.000
    Zr183   Zr   0.65870   0.29415   0.09960   1.000
    Zr184   Zr   0.65867   0.29412   0.59964   1.000
    Zr185   Zr   0.65869   0.79407   0.59968   1.000
    Zr186   Zr   0.47405   0.28095   0.42301   1.000
    Zr187   Zr   0.47406   0.28095   0.92300   1.000
    Zr188   Zr   0.47398   0.78090   0.42310   1.000
    Zr189   Zr   0.47392   0.78086   0.92315   1.000
    Zr190   Zr   0.97407   0.28095   0.42301   1.000
    Zr191   Zr   0.97408   0.28095   0.92300   1.000
    Zr192   Zr   0.97400   0.78090   0.42310   1.000
    Zr193   Zr   0.97394   0.78086   0.92315   1.000
    Zr194   Zr   0.39168   0.34905   0.46340   1.000
    Zr195   Zr   0.39170   0.34904   0.96341   1.000
    Zr196   Zr   0.39167   0.84906   0.46343   1.000
    Zr197   Zr   0.39167   0.84906   0.96347   1.000
    Zr198   Zr   0.89170   0.34905   0.46340   1.000
    Zr199   Zr   0.89172   0.34904   0.96341   1.000
    Zr200   Zr   0.89168   0.84906   0.46343   1.000
    Zr201   Zr   0.89169   0.84906   0.96347   1.000
    O202    O    0.10241   0.71374   0.00382   1.000
    O203    O    0.01405   0.73452   0.03846   1.000
    O204    O    0.01404   0.76541   0.96158   1.000
    O205    O    0.10245   0.78616   0.99620   1.000
    O206    O    0.16305   0.67367   0.98110   1.000
    O207    O    0.66300   0.17364   0.98109   1.000
    O208    O    0.60238   0.21374   0.00380   1.000
    O209    O    0.16298   0.17364   0.98109   1.000
    O210    O    0.10236   0.21374   0.00380   1.000
    O211    O    0.66307   0.67367   0.98110   1.000
    O212    O    0.89789   0.16543   0.05614   1.000
    O213    O    0.39787   0.16543   0.05614   1.000
    O214    O    0.89797   0.66543   0.05621   1.000
    O215    O    0.66710   0.31212   0.07254   1.000
    O216    O    0.66318   0.32620   0.01893   1.000
    O217    O    0.16708   0.31212   0.07254   1.000
    O218    O    0.16316   0.32620   0.01893   1.000
    O219    O    0.16707   0.81212   0.07255   1.000
    O220    O    0.16309   0.82624   0.01895   1.000
    O221    O    0.43894   0.19958   0.07627   1.000
    O222    O    0.93896   0.19958   0.07627   1.000
    O223    O    0.93911   0.69950   0.07639   1.000
    O224    O    0.51394   0.23458   0.03836   1.000
    O225    O    0.01394   0.23458   0.03836   1.000
    O226    O    0.60218   0.55613   0.16543   1.000
    O227    O    0.10216   0.55613   0.16543   1.000
    O228    O    0.10213   0.05614   0.16543   1.000
    O229    O    0.60215   0.05614   0.16543   1.000
    O230    O    0.33702   0.98102   0.17370   1.000
    O231    O    0.33297   0.92738   0.18784   1.000
    O232    O    0.83703   0.98102   0.17370   1.000
    O233    O    0.83299   0.92738   0.18784   1.000
    O234    O    0.33701   0.48097   0.17371   1.000
    O235    O    0.33298   0.42734   0.18786   1.000
    O236    O    0.83702   0.48097   0.17371   1.000
    O237    O    0.83300   0.42734   0.18786   1.000
    O238    O    0.89765   0.00378   0.21378   1.000
    O239    O    0.39763   0.00378   0.21378   1.000
    O240    O    0.89764   0.50375   0.21377   1.000
    O241    O    0.39762   0.50375   0.21377   1.000
    O242    O    0.06107   0.07630   0.19955   1.000
    O243    O    0.56109   0.07630   0.19955   1.000
    O244    O    0.56112   0.57628   0.19956   1.000
    O245    O    0.06110   0.57628   0.19956   1.000
    O246    O    0.48609   0.03839   0.23457   1.000
    O247    O    0.98610   0.53837   0.23456   1.000
    O248    O    0.98609   0.03839   0.23457   1.000
    O249    O    0.48610   0.53837   0.23456   1.000
    O250    O    0.98594   0.46147   0.26549   1.000
    O251    O    0.89756   0.49623   0.28612   1.000
    O252    O    0.48594   0.46147   0.26549   1.000
    O253    O    0.39754   0.49623   0.28612   1.000
    O254    O    0.48595   0.96147   0.26549   1.000
    O255    O    0.39756   0.99622   0.28614   1.000
    O256    O    0.98595   0.96147   0.26549   1.000
    O257    O    0.89758   0.99621   0.28614   1.000
    O258    O    0.56087   0.92350   0.30054   1.000
    O259    O    0.56086   0.42351   0.30054   1.000
    O260    O    0.06085   0.92350   0.30054   1.000
    O261    O    0.06084   0.42351   0.30054   1.000
    O262    O    0.83298   0.57269   0.31211   1.000
    O263    O    0.33296   0.57269   0.31211   1.000
    O264    O    0.83296   0.07265   0.31214   1.000
    O265    O    0.33294   0.07265   0.31214   1.000
    O266    O    0.10203   0.44373   0.33457   1.000
    O267    O    0.60205   0.44373   0.33457   1.000
    O268    O    0.60205   0.94372   0.33455   1.000
    O269    O    0.10203   0.94372   0.33457   1.000
    O270    O    0.83689   0.51906   0.32616   1.000
    O271    O    0.33687   0.51906   0.32616   1.000
    O272    O    0.83691   0.01901   0.32619   1.000
    O273    O    0.33690   0.01901   0.32619   1.000
    O274    O    0.66704   0.18784   0.42745   1.000
    O275    O    0.16702   0.18784   0.42745   1.000
    O276    O    0.16703   0.68784   0.42745   1.000
    O277    O    0.66705   0.68784   0.42745   1.000
    O278    O    0.93919   0.30050   0.42354   1.000
    O279    O    0.01410   0.26546   0.46149   1.000
    O280    O    0.43917   0.30050   0.42354   1.000
    O281    O    0.51410   0.26546   0.46149   1.000
    O282    O    0.43911   0.80046   0.42362   1.000
    O283    O    0.51406   0.76543   0.46155   1.000
    O284    O    0.93912   0.80046   0.42362   1.000
    O285    O    0.01406   0.76543   0.46155   1.000
    O286    O    0.39798   0.33455   0.44373   1.000
    O287    O    0.89800   0.33455   0.44373   1.000
    O288    O    0.39795   0.83454   0.44378   1.000
    O289    O    0.89797   0.83454   0.44378   1.000
    O290    O    0.66305   0.67365   0.48106   1.000
    O291    O    0.66301   0.17364   0.48105   1.000
    O292    O    0.16303   0.67365   0.48106   1.000
    O293    O    0.16299   0.17364   0.48105   1.000
    O294    O    0.10249   0.28614   0.49620   1.000
    O295    O    0.16318   0.32618   0.51897   1.000
    O296    O    0.60251   0.28614   0.49620   1.000
    O297    O    0.66320   0.32618   0.51897   1.000
    O298    O    0.10249   0.78614   0.49624   1.000
    O299    O    0.16316   0.82618   0.51902   1.000
    O300    O    0.60251   0.78613   0.49624   1.000
    O301    O    0.66318   0.82618   0.51902   1.000
    O302    O    0.60240   0.21373   0.50379   1.000
    O303    O    0.51394   0.23458   0.53836   1.000
    O304    O    0.10238   0.21373   0.50379   1.000
    O305    O    0.01394   0.23458   0.53836   1.000
    O306    O    0.10241   0.71373   0.50382   1.000
    O307    O    0.01401   0.73454   0.53843   1.000
    O308    O    0.60243   0.71373   0.50382   1.000
    O309    O    0.51401   0.73454   0.53843   1.000
    O310    O    0.89787   0.16543   0.55614   1.000
    O311    O    0.39786   0.16543   0.55614   1.000
    O312    O    0.39791   0.66542   0.55618   1.000
    O313    O    0.89793   0.66542   0.55618   1.000
    O314    O    0.16707   0.31209   0.57257   1.000
    O315    O    0.66709   0.31209   0.57257   1.000
    O316    O    0.66709   0.81206   0.57263   1.000
    O317    O    0.16707   0.81206   0.57263   1.000
    O318    O    0.93894   0.19958   0.57626   1.000
    O319    O    0.43892   0.19958   0.57626   1.000
    O320    O    0.93904   0.69953   0.57634   1.000
    O321    O    0.43902   0.69953   0.57634   1.000
    O322    O    0.60212   0.55617   0.66544   1.000
    O323    O    0.10210   0.55617   0.66544   1.000
    O324    O    0.10206   0.05621   0.66544   1.000
    O325    O    0.60208   0.05621   0.66544   1.000
    O326    O    0.33695   0.48097   0.67375   1.000
    O327    O    0.33298   0.42734   0.68788   1.000
    O328    O    0.83697   0.48097   0.67375   1.000
    O329    O    0.83300   0.42734   0.68788   1.000
    O330    O    0.33692   0.98100   0.67377   1.000
    O331    O    0.33296   0.92735   0.68787   1.000
    O332    O    0.83694   0.98100   0.67377   1.000
    O333    O    0.83298   0.92735   0.68787   1.000
    O334    O    0.89761   0.50377   0.71380   1.000
    O335    O    0.39759   0.50377   0.71380   1.000
    O336    O    0.39758   0.00379   0.71382   1.000
    O337    O    0.89760   0.00379   0.71382   1.000
    O338    O    0.56095   0.07642   0.69947   1.000
    O339    O    0.06094   0.07642   0.69947   1.000
    O340    O    0.56101   0.57637   0.69951   1.000
    O341    O    0.06099   0.57637   0.69951   1.000
    O342    O    0.48601   0.03849   0.73450   1.000
    O343    O    0.98601   0.03849   0.73450   1.000
    O344    O    0.48604   0.53845   0.73453   1.000
    O345    O    0.98604   0.53845   0.73453   1.000
    O346    O    0.98600   0.46154   0.76547   1.000
    O347    O    0.89759   0.49626   0.78615   1.000
    O348    O    0.48600   0.46154   0.76547   1.000
    O349    O    0.39757   0.49626   0.78615   1.000
    O350    O    0.48602   0.96156   0.76545   1.000
    O351    O    0.39762   0.99623   0.78618   1.000
    O352    O    0.98602   0.96156   0.76545   1.000
    O353    O    0.89764   0.99623   0.78618   1.000
    O354    O    0.06097   0.92362   0.80048   1.000
    O355    O    0.56099   0.92362   0.80049   1.000
    O356    O    0.56096   0.42360   0.80047   1.000
    O357    O    0.06094   0.42360   0.80047   1.000
    O358    O    0.33298   0.57271   0.81209   1.000
    O359    O    0.83300   0.57271   0.81210   1.000
    O360    O    0.83298   0.07264   0.81216   1.000
    O361    O    0.33296   0.07264   0.81216   1.000
    O362    O    0.10209   0.44379   0.83450   1.000
    O363    O    0.60211   0.44379   0.83450   1.000
    O364    O    0.60212   0.94380   0.83457   1.000
    O365    O    0.10210   0.94380   0.83457   1.000
    O366    O    0.33694   0.51907   0.82619   1.000
    O367    O    0.83695   0.51907   0.82619   1.000
    O368    O    0.33699   0.01900   0.82625   1.000
    O369    O    0.83701   0.01900   0.82625   1.000
    O370    O    0.16706   0.68782   0.92748   1.000
    O371    O    0.16704   0.18781   0.92749   1.000
    O372    O    0.66708   0.68782   0.92749   1.000
    O373    O    0.60643   0.72790   0.90022   1.000
    O374    O    0.66706   0.18781   0.92749   1.000
    O375    O    0.93920   0.30051   0.92353   1.000
    O376    O    0.01409   0.26547   0.96148   1.000
    O377    O    0.43918   0.30051   0.92353   1.000
    O378    O    0.51409   0.26547   0.96148   1.000
    O379    O    0.93909   0.80044   0.92363   1.000
    O380    O    0.43907   0.80044   0.92366   1.000
    O381    O    0.51403   0.76541   0.91158   1.000
    O382    O    0.39800   0.33455   0.94373   1.000
    O383    O    0.89802   0.33455   0.94373   1.000
    O384    O    0.89796   0.83454   0.94379   1.000
    O385    O    0.39794   0.83454   0.94382   1.000
    O386    O    0.10247   0.28615   0.99618   1.000
    O387    O    0.60249   0.28615   0.99618   1.000
    N388    N    0.74996   0.57892   0.42100   1.000
    O389    O    0.77367   0.56063   0.39099   1.000
    O390    O    0.72629   0.60890   0.43935   1.000
    N391    N    0.75006   0.85238   0.85240   1.000
    O392    O    0.80902   0.83807   0.87470   1.000
    O393    O    0.69108   0.87469   0.83809   1.000
    N394    N    0.25002   0.35236   0.35236   1.000
    O395    O    0.30902   0.33807   0.37465   1.000
    O396    O    0.19101   0.37464   0.33808   1.000
    N397    N    0.75016   0.57897   0.92108   1.000
    O398    O    0.77381   0.56068   0.89104   1.000
    O399    O    0.72641   0.60892   0.93943   1.000
    N400    N    0.25020   0.42098   0.07887   1.000
    O401    O    0.27385   0.43930   0.10889   1.000
    O402    O    0.22645   0.39100   0.06055   1.000
    N403    N    0.25004   0.85238   0.85240   1.000
    O404    O    0.30900   0.83807   0.87472   1.000
    O405    O    0.19106   0.87469   0.83809   1.000
    N406    N    0.75004   0.35236   0.35236   1.000
    O407    O    0.80904   0.33807   0.37465   1.000
    O408    O    0.69103   0.37464   0.33808   1.000
    N409    N    0.25003   0.14757   0.14756   1.000
    O410    O    0.30896   0.16191   0.12523   1.000
    O411    O    0.19109   0.12525   0.16189   1.000
    N412    N    0.24984   0.07886   0.42092   1.000
    O413    O    0.27360   0.06058   0.39097   1.000
    O414    O    0.22618   0.10886   0.43931   1.000
    N415    N    0.25009   0.35242   0.85233   1.000
    O416    O    0.19109   0.37472   0.83803   1.000
    O417    O    0.30908   0.33812   0.87463   1.000
    N418    N    0.24994   0.57892   0.42100   1.000
    O419    O    0.27365   0.56063   0.39099   1.000
    O420    O    0.22627   0.60890   0.43935   1.000
    N421    N    0.24997   0.85231   0.35243   1.000
    O422    O    0.30897   0.83803   0.37472   1.000
    O423    O    0.19098   0.87461   0.33813   1.000
    N424    N    0.75013   0.64753   0.14763   1.000
    O425    O    0.80908   0.66185   0.12532   1.000
    O426    O    0.69117   0.62521   0.16194   1.000
    N427    N    0.74986   0.07886   0.42100   1.000
    O428    O    0.77362   0.06058   0.39101   1.000
    O429    O    0.72620   0.10886   0.43935   1.000
    N430    N    0.24996   0.14763   0.64753   1.000
    O431    O    0.19100   0.12532   0.66186   1.000
    O432    O    0.30891   0.16194   0.62521   1.000
    N433    N    0.25003   0.64758   0.64758   1.000
    O434    O    0.19106   0.62528   0.66189   1.000
    O435    O    0.30899   0.66189   0.62526   1.000
    N436    N    0.25014   0.57897   0.92107   1.000
    O437    O    0.27379   0.56068   0.89104   1.000
    O438    O    0.22639   0.60892   0.93942   1.000
    N439    N    0.75011   0.42097   0.57895   1.000
    O440    O    0.77377   0.43930   0.60895   1.000
    O441    O    0.72642   0.39098   0.56062   1.000
    N442    N    0.25005   0.92107   0.07888   1.000
    O443    O    0.27378   0.93939   0.10888   1.000
    O444    O    0.22631   0.89107   0.06057   1.000
    N445    N    0.25001   0.07885   0.92112   1.000
    O446    O    0.22625   0.10884   0.93944   1.000
    O447    O    0.27376   0.06058   0.89110   1.000
    N448    N    0.75011   0.35242   0.85232   1.000
    O449    O    0.80909   0.33812   0.87462   1.000
    O450    O    0.69111   0.37472   0.83801   1.000
    N451    N    0.74996   0.92102   0.57901   1.000
    O452    O    0.72632   0.89100   0.56069   1.000
    O453    O    0.77367   0.93934   0.60899   1.000
    N454    N    0.75005   0.64758   0.64758   1.000
    O455    O    0.80901   0.66189   0.62526   1.000
    O456    O    0.69108   0.62528   0.66189   1.000
    N457    N    0.74998   0.14763   0.64753   1.000
    O458    O    0.80893   0.16194   0.62521   1.000
    O459    O    0.69102   0.12532   0.66186   1.000
    N460    N    0.75005   0.14757   0.14756   1.000
    O461    O    0.80898   0.16191   0.12523   1.000
    O462    O    0.69110   0.12525   0.16189   1.000
    N463    N    0.75003   0.07886   0.92112   1.000
    O464    O    0.72627   0.10884   0.93944   1.000
    O465    O    0.77378   0.06058   0.89110   1.000
    N466    N    0.25009   0.42097   0.57895   1.000
    O467    O    0.27375   0.43930   0.60895   1.000
    O468    O    0.22640   0.39098   0.56062   1.000
    N469    N    0.29340   0.65647   0.12650   1.000
    O470    O    0.21279   0.62968   0.15137   1.000
    N471    N    0.24994   0.92102   0.57901   1.000
    O472    O    0.27365   0.93934   0.60899   1.000
    O473    O    0.22630   0.89100   0.56069   1.000
    N474    N    0.75022   0.42098   0.07887   1.000
    O475    O    0.77387   0.43930   0.10889   1.000
    O476    O    0.72647   0.39100   0.06055   1.000
    N477    N    0.74999   0.85231   0.35236   1.000
    O478    O    0.80899   0.83803   0.37469   1.000
    O479    O    0.69100   0.87461   0.33809   1.000
    N480    N    0.72796   0.89469   0.07061   1.000
    O481    O    0.76275   0.92619   0.10474   1.000
loop_
    _geom_bond_atom_site_label_1
    _geom_bond_atom_site_label_2
    _geom_bond_distance
    _geom_bond_site_symmetry_2
    _ccdc_geom_bond_type
    Zr11   O202      1.02136      .   S
    Zr144  O202      1.02136      .   S
    Zr11   O203      0.98261      .   S
    Zr163  O203      0.98261  1_655   S
    Zr11   O204      0.98189  1_554   S
    Zr193  O204      0.98189  1_655   S
    Zr11   O205      1.02146  1_554   S
    Zr175  O205      1.02146      .   S
    Zr144  O206      0.64382  1_554   S
    Zr51   O206      0.64382      .   S
    Zr146  O207      0.64392  1_554   S
    Zr53   O207      0.64392      .   S
    Zr146  O208      1.02152      .   S
    Zr12   O208      1.02152  1_556   S
    Zr142  O209      0.64393  1_554   S
    Zr49   O209      0.64393      .   S
    Zr142  O210      1.02152      .   S
    Zr8    O210      1.02152  1_556   S
    Zr148  O211      0.64382  1_554   S
    Zr55   O211      0.64382      .   S
    Zr168  O212      0.62311      .   S
    Zr59   O212      0.62311      .   S
    Zr165  O213      0.62311      .   S
    Zr56   O213      0.62311      .   S
    Zr170  O214      0.62312      .   S
    Zr61   O214      0.62312      .   S
    Zr67   O215      0.62216      .   S
    Zr183  O215      0.62216      .   S
    Zr67   O216      0.64379      .   S
    Zr177  O216      0.64379  1_556   S
    Zr63   O217      0.62216      .   S
    Zr179  O217      0.62216      .   S
    Zr63   O218      0.64379      .   S
    Zr173  O218      0.64379  1_556   S
    Zr65   O219      0.62211      .   S
    Zr181  O219      0.62211      .   S
    Zr65   O220      0.64382      .   S
    Zr175  O220      0.64382  1_556   S
    Zr56   O221      0.64545      .   S
    Zr158  O221      0.64545      .   S
    Zr59   O222      0.64546      .   S
    Zr161  O222      0.64546      .   S
    Zr61   O223      0.64546      .   S
    Zr163  O223      0.64546      .   S
    Zr158  O224      0.98234      .   S
    Zr12   O224      0.98234  1_556   S
    Zr161  O225      0.98221  1_655   S
    Zr8    O225      0.98221  1_556   S
    Zr108  O226      0.62312      .   S
    Zr30   O226      0.62312      .   S
    Zr104  O227      0.62312      .   S
    Zr26   O227      0.62312      .   S
    Zr102  O228      0.62311      .   S
    Zr24   O228      0.62311      .   S
    Zr106  O229      0.62311      .   S
    Zr28   O229      0.62311      .   S
    Zr18   O230      0.64406      .   S
    Zr78   O230      0.64406  1_545   S
    Zr18   O231      0.62207      .   S
    Zr88   O231      0.62207      .   S
    Zr22   O232      0.64407      .   S
    Zr82   O232      0.64407  1_545   S
    Zr22   O233      0.62207      .   S
    Zr92   O233      0.62207      .   S
    Zr16   O234      0.64393      .   S
    Zr80   O234      0.64393      .   S
    Zr16   O235      0.62205      .   S
    Zr86   O235      0.62205      .   S
    Zr20   O236      0.64393      .   S
    Zr84   O236      0.64393      .   S
    Zr20   O237      0.62205      .   S
    Zr90   O237      0.62205      .   S
    Zr82   O238      1.02152      .   S
    Zr4    O238      1.02152  1_565   S
    Zr78   O239      1.02153      .   S
    Zr0    O239      1.02153  1_565   S
    Zr84   O240      1.02157      .   S
    Zr6    O240      1.02157      .   S
    Zr80   O241      1.02157      .   S
    Zr2    O241      1.02157      .   S
    Zr24   O242      0.64551      .   S
    Zr94   O242      0.64551      .   S
    Zr28   O243      0.64551      .   S
    Zr98   O243      0.64551      .   S
    Zr30   O244      0.64546      .   S
    Zr100  O244      0.64546      .   S
    Zr26   O245      0.64546      .   S
    Zr96   O245      0.64546      .   S
    Zr98   O246      0.98229      .   S
    Zr0    O246      0.98229  1_565   S
    Zr96   O247      0.98213  1_455   S
    Zr6    O247      0.98213      .   S
    Zr94   O248      0.98215  1_455   S
    Zr4    O248      0.98215  1_565   S
    Zr100  O249      0.98227      .   S
    Zr2    O249      0.98227      .   S
    Zr6    O250      0.98237      .   S
    Zr126  O250      0.98237  1_455   S
    Zr6    O251      1.02139      .   S
    Zr114  O251      1.02139      .   S
    Zr2    O252      0.98251      .   S
    Zr130  O252      0.98251      .   S
    Zr2    O253      1.02139      .   S
    Zr110  O253      1.02139      .   S
    Zr0    O254      0.98269      .   S
    Zr132  O254      0.98269      .   S
    Zr0    O255      1.02127      .   S
    Zr112  O255      1.02127      .   S
    Zr4    O256      0.98255      .   S
    Zr128  O256      0.98255  1_455   S
    Zr4    O257      1.02127      .   S
    Zr116  O257      1.02127      .   S
    Zr132  O258      0.64548      .   S
    Zr46   O258      0.64548      .   S
    Zr130  O259      0.64550      .   S
    Zr44   O259      0.64550      .   S
    Zr128  O260      0.64548      .   S
    Zr42   O260      0.64548      .   S
    Zr126  O261      0.64550      .   S
    Zr40   O261      0.64550      .   S
    Zr124  O262      0.62212      .   S
    Zr38   O262      0.62212      .   S
    Zr120  O263      0.62213      .   S
    Zr34   O263      0.62213      .   S
    Zr122  O264      0.62211      .   S
    Zr36   O264      0.62211      .   S
    Zr118  O265      0.62211      .   S
    Zr32   O265      0.62211      .   S
    Zr40   O266      0.62313      .   S
    Zr134  O266      0.62313      .   S
    Zr44   O267      0.62313      .   S
    Zr138  O267      0.62313      .   S
    Zr46   O268      0.62277      .   S
    Zr140  O268      0.62277      .   S
    Zr42   O269      0.62309      .   S
    Zr136  O269      0.62309      .   S
    Zr114  O270      0.64392      .   S
    Zr38   O270      0.64392      .   S
    Zr110  O271      0.64391      .   S
    Zr34   O271      0.64391      .   S
    Zr116  O272      0.64409  1_565   S
    Zr36   O272      0.64409      .   S
    Zr112  O273      0.64408  1_565   S
    Zr32   O273      0.64408      .   S
    Zr154  O274      0.62212      .   S
    Zr52   O274      0.62212      .   S
    Zr150  O275      0.62212      .   S
    Zr48   O275      0.62212      .   S
    Zr152  O276      0.62210      .   S
    Zr50   O276      0.62210      .   S
    Zr156  O277      0.62210      .   S
    Zr54   O277      0.62210      .   S
    Zr190  O278      0.64545      .   S
    Zr74   O278      0.64545      .   S
    Zr190  O279      0.98236  1_655   S
    Zr9    O279      0.98236      .   S
    Zr186  O280      0.64545      .   S
    Zr70   O280      0.64545      .   S
    Zr186  O281      0.98250      .   S
    Zr13   O281      0.98250      .   S
    Zr188  O282      0.64545      .   S
    Zr72   O282      0.64545      .   S
    Zr188  O283      0.98236      .   S
    Zr14   O283      0.98236      .   S
    Zr192  O284      0.64546      .   S
    Zr76   O284      0.64546      .   S
    Zr192  O285      0.98222  1_655   S
    Zr10   O285      0.98222      .   S
    Zr70   O286      0.62319      .   S
    Zr194  O286      0.62319      .   S
    Zr74   O287      0.62319      .   S
    Zr198  O287      0.62319      .   S
    Zr72   O288      0.62310      .   S
    Zr196  O288      0.62310      .   S
    Zr76   O289      0.62310      .   S
    Zr200  O289      0.62310      .   S
    Zr54   O290      0.64397      .   S
    Zr149  O290      0.64397      .   S
    Zr52   O291      0.64374      .   S
    Zr147  O291      0.64374      .   S
    Zr50   O292      0.64396      .   S
    Zr145  O292      0.64396      .   S
    Zr48   O293      0.64373      .   S
    Zr143  O293      0.64373      .   S
    Zr172  O294      1.02142      .   S
    Zr9    O294      1.02142      .   S
    Zr172  O295      0.64359      .   S
    Zr64   O295      0.64359      .   S
    Zr176  O296      1.02141      .   S
    Zr13   O296      1.02141      .   S
    Zr176  O297      0.64359      .   S
    Zr68   O297      0.64359      .   S
    Zr174  O298      1.02146      .   S
    Zr10   O298      1.02146      .   S
    Zr174  O299      0.64391      .   S
    Zr66   O299      0.64391      .   S
    Zr178  O300      1.02146      .   S
    Zr14   O300      1.02146      .   S
    Zr178  O301      0.64391      .   S
    Zr69   O301      0.64391      .   S
    Zr13   O302      1.02164      .   S
    Zr147  O302      1.02164      .   S
    Zr13   O303      0.98227      .   S
    Zr159  O303      0.98227      .   S
    Zr9    O304      1.02164      .   S
    Zr143  O304      1.02164      .   S
    Zr9    O305      0.98213      .   S
    Zr162  O305      0.98213  1_655   S
    Zr10   O306      1.02160      .   S
    Zr145  O306      1.02160      .   S
    Zr10   O307      0.98220      .   S
    Zr164  O307      0.98220  1_655   S
    Zr14   O308      1.02160      .   S
    Zr149  O308      1.02160      .   S
    Zr14   O309      0.98234      .   S
    Zr160  O309      0.98234      .   S
    Zr169  O310      0.62314      .   S
    Zr60   O310      0.62314      .   S
    Zr166  O311      0.62314      .   S
    Zr57   O311      0.62314      .   S
    Zr167  O312      0.62312      .   S
    Zr58   O312      0.62312      .   S
    Zr171  O313      0.62312      .   S
    Zr62   O313      0.62312      .   S
    Zr64   O314      0.62229      .   S
    Zr180  O314      0.62229      .   S
    Zr68   O315      0.62229      .   S
    Zr184  O315      0.62229      .   S
    Zr69   O316      0.62210      .   S
    Zr185  O316      0.62210      .   S
    Zr66   O317      0.62210      .   S
    Zr182  O317      0.62210      .   S
    Zr60   O318      0.64544      .   S
    Zr162  O318      0.64544      .   S
    Zr57   O319      0.64544      .   S
    Zr159  O319      0.64544      .   S
    Zr62   O320      0.64545      .   S
    Zr164  O320      0.64545      .   S
    Zr58   O321      0.64545      .   S
    Zr160  O321      0.64545      .   S
    Zr109  O322      0.62308      .   S
    Zr31   O322      0.62308      .   S
    Zr105  O323      0.62308      .   S
    Zr27   O323      0.62308      .   S
    Zr103  O324      0.62314      .   S
    Zr25   O324      0.62314      .   S
    Zr107  O325      0.62314      .   S
    Zr29   O325      0.62314      .   S
    Zr17   O326      0.64391      .   S
    Zr81   O326      0.64391      .   S
    Zr17   O327      0.62211      .   S
    Zr87   O327      0.62211      .   S
    Zr21   O328      0.64391      .   S
    Zr85   O328      0.64391      .   S
    Zr21   O329      0.62211      .   S
    Zr91   O329      0.62211      .   S
    Zr19   O330      0.64405      .   S
    Zr79   O330      0.64405  1_545   S
    Zr19   O331      0.62209      .   S
    Zr89   O331      0.62209      .   S
    Zr23   O332      0.64405      .   S
    Zr83   O332      0.64405  1_545   S
    Zr23   O333      0.62209      .   S
    Zr93   O333      0.62209      .   S
    Zr85   O334      1.02152      .   S
    Zr7    O334      1.02152      .   S
    Zr81   O335      1.02153      .   S
    Zr3    O335      1.02153      .   S
    Zr79   O336      1.02147      .   S
    Zr1    O336      1.02147      .   S
    Zr83   O337      1.02147      .   S
    Zr5    O337      1.02147      .   S
    Zr29   O338      0.64515      .   S
    Zr99   O338      0.64515      .   S
    Zr25   O339      0.64515      .   S
    Zr95   O339      0.64515      .   S
    Zr31   O340      0.64552      .   S
    Zr101  O340      0.64552      .   S
    Zr27   O341      0.64551      .   S
    Zr97   O341      0.64551      .   S
    Zr99   O342      0.98255      .   S
    Zr1    O342      0.98255      .   S
    Zr95   O343      0.98241  1_455   S
    Zr5    O343      0.98241      .   S
    Zr101  O344      0.98240      .   S
    Zr3    O344      0.98240      .   S
    Zr97   O345      0.98227  1_455   S
    Zr7    O345      0.98227      .   S
    Zr7    O346      0.98219      .   S
    Zr127  O346      0.98219  1_455   S
    Zr7    O347      1.02145      .   S
    Zr115  O347      1.02145      .   S
    Zr3    O348      0.98233      .   S
    Zr131  O348      0.98233      .   S
    Zr3    O349      1.02145      .   S
    Zr111  O349      1.02145      .   S
    Zr1    O350      0.98246  1_545   S
    Zr133  O350      0.98246      .   S
    Zr1    O351      1.02131  1_545   S
    Zr113  O351      1.02131      .   S
    Zr5    O352      0.98231  1_545   S
    Zr129  O352      0.98231  1_455   S
    Zr5    O353      1.02131  1_545   S
    Zr117  O353      1.02131      .   S
    Zr129  O354      0.64557      .   S
    Zr43   O354      0.64557      .   S
    Zr133  O355      0.64549      .   S
    Zr47   O355      0.64549      .   S
    Zr131  O356      0.64503      .   S
    Zr45   O356      0.64503      .   S
    Zr127  O357      0.64503      .   S
    Zr41   O357      0.64503      .   S
    Zr121  O358      0.62219      .   S
    Zr35   O358      0.62219      .   S
    Zr125  O359      0.62207      .   S
    Zr39   O359      0.62207      .   S
    Zr123  O360      0.62209      .   S
    Zr37   O360      0.62209      .   S
    Zr119  O361      0.62209      .   S
    Zr33   O361      0.62209      .   S
    Zr41   O362      0.62296      .   S
    Zr135  O362      0.62296      .   S
    Zr45   O363      0.62297      .   S
    Zr139  O363      0.62297      .   S
    Zr47   O364      0.62316      .   S
    Zr141  O364      0.62316      .   S
    Zr43   O365      0.62316      .   S
    Zr137  O365      0.62316      .   S
    Zr111  O366      0.64393      .   S
    Zr35   O366      0.64393      .   S
    Zr115  O367      0.64393      .   S
    Zr39   O367      0.64393      .   S
    Zr113  O368      0.64414  1_565   S
    Zr33   O368      0.64414      .   S
    Zr117  O369      0.64414  1_565   S
    Zr37   O369      0.64414      .   S
    Zr153  O370      0.62245      .   S
    Zr51   O370      0.62245      .   S
    Zr151  O371      0.62202      .   S
    Zr49   O371      0.62202      .   S
    Zr157  O372      0.62210      .   S
    Zr55   O372      0.62210      .   S
    Zr157  O373      0.86250      .   S
    Zr15   O373      0.86250      .   S
    Zr155  O374      0.62202      .   S
    Zr53   O374      0.62202      .   S
    Zr191  O375      0.64547      .   S
    Zr75   O375      0.64547      .   S
    Zr191  O376      0.98227  1_655   S
    Zr8    O376      0.98227      .   S
    Zr187  O377      0.64547      .   S
    Zr71   O377      0.64547      .   S
    Zr187  O378      0.98240      .   S
    Zr12   O378      0.98240      .   S
    Zr193  O379      0.64529      .   S
    Zr77   O379      0.64529      .   S
    Zr189  O380      0.64547      .   S
    Zr73   O380      0.64547      .   S
    Zr189  O381      0.73158      .   S
    Zr15   O381      0.73158      .   S
    Zr71   O382      0.62314      .   S
    Zr195  O382      0.62314      .   S
    Zr75   O383      0.62314      .   S
    Zr199  O383      0.62314      .   S
    Zr77   O384      0.62379      .   S
    Zr201  O384      0.62379      .   S
    Zr73   O385      0.62312      .   S
    Zr197  O385      0.62312      .   S
    Zr173  O386      1.02139      .   S
    Zr8    O386      1.02139      .   S
    Zr177  O387      1.02139      .   S
    Zr12   O387      1.02139      .   S
    N388   O389      0.93779      .   S
    Zr38   O389      1.64357      .   S
    N388   O390      0.93795      .   S
    Zr54   O390      1.64365      .   S
    N391   O392      0.94460      .   S
    Zr77   O392      1.66437      .   S
    N391   O393      0.94475      .   S
    Zr47   O393      1.66493      .   S
    N394   O395      0.94472      .   S
    Zr70   O395      1.66502      .   S
    N394   O396      0.94478      .   S
    Zr40   O396      1.66492      .   S
    N397   O398      0.93813      .   S
    Zr39   O398      1.64407      .   S
    N397   O399      0.93771      .   S
    Zr55   O399      1.64342      .   S
    N400   O401      0.93818      .   S
    Zr16   O401      1.64403      .   S
    N400   O402      0.93762      .   S
    Zr63   O402      1.64337      .   S
    N403   O404      0.94474      .   S
    Zr73   O404      1.66508      .   S
    N403   O405      0.94475      .   S
    Zr43   O405      1.66493      .   S
    N406   O407      0.94475      .   S
    Zr74   O407      1.66494      .   S
    N406   O408      0.94478      .   S
    Zr44   O408      1.66492      .   S
    N409   O410      0.94484      .   S
    Zr56   O410      1.66513      .   S
    N409   O411      0.94481      .   S
    Zr24   O411      1.66506      .   S
    N412   O413      0.93689      .   S
    Zr32   O413      1.64265      .   S
    N412   O414      0.93881      .   S
    Zr48   O414      1.64444      .   S
    N415   O416      0.94483      .   S
    Zr41   O416      1.66497      .   S
    N415   O417      0.94477      .   S
    Zr71   O417      1.66498      .   S
    N418   O419      0.93777      .   S
    Zr34   O419      1.64355      .   S
    N418   O420      0.93797      .   S
    Zr50   O420      1.64367      .   S
    N421   O422      0.94477      .   S
    Zr72   O422      1.66494      .   S
    N421   O423      0.94479      .   S
    Zr42   O423      1.66492      .   S
    N424   O425      0.94485      .   S
    Zr61   O425      1.66514      .   S
    N424   O426      0.94484      .   S
    Zr30   O426      1.66510      .   S
    N427   O428      0.93762      .   S
    Zr36   O428      1.64341      .   S
    N427   O429      0.93825      .   S
    Zr52   O429      1.64405      .   S
    N430   O431      0.94481      .   S
    Zr25   O431      1.66502      .   S
    N430   O432      0.94488      .   S
    Zr57   O432      1.66519      .   S
    N433   O434      0.94483      .   S
    Zr27   O434      1.66505      .   S
    N433   O435      0.94487      .   S
    Zr58   O435      1.66511      .   S
    N436   O437      0.93806      .   S
    Zr35   O437      1.64400      .   S
    N436   O438      0.93777      .   S
    Zr51   O438      1.64345      .   S
    N439   O440      0.93796      .   S
    Zr21   O440      1.64372      .   S
    N439   O441      0.93779      .   S
    Zr68   O441      1.64362      .   S
    N442   O443      0.93799      .   S
    Zr18   O443      1.64389      .   S
    N442   O444      0.93794      .   S
    Zr65   O444      1.64381      .   S
    N445   O446      0.93796      .   S
    Zr49   O446      1.64382      .   S
    N445   O447      0.93800      .   S
    Zr33   O447      1.64393      .   S
    N448   O449      0.94480      .   S
    Zr75   O449      1.66502      .   S
    N448   O450      0.94488      .   S
    Zr45   O450      1.66496      .   S
    N451   O452      0.93800      .   S
    Zr69   O452      1.64377      .   S
    N451   O453      0.93766      .   S
    Zr23   O453      1.64340      .   S
    N454   O455      0.94487      .   S
    Zr62   O455      1.66511      .   S
    N454   O456      0.94483      .   S
    Zr31   O456      1.66505      .   S
    N457   O458      0.94488      .   S
    Zr60   O458      1.66519      .   S
    N457   O459      0.94481      .   S
    Zr29   O459      1.66502      .   S
    N460   O461      0.94484      .   S
    Zr59   O461      1.66512      .   S
    N460   O462      0.94481      .   S
    Zr28   O462      1.66506      .   S
    N463   O464      0.93797      .   S
    Zr53   O464      1.64384      .   S
    N463   O465      0.93800      .   S
    Zr37   O465      1.64393      .   S
    N466   O467      0.93799      .   S
    Zr17   O467      1.64376      .   S
    N466   O468      0.93776      .   S
    Zr64   O468      1.64361      .   S
    N469   O470      1.28801      .   S
    Zr26   O470      1.97377      .   S
    N471   O472      0.93767      .   S
    Zr19   O472      1.64342      .   S
    N471   O473      0.93798      .   S
    Zr66   O473      1.64376      .   S
    N474   O475      0.93818      .   S
    Zr20   O475      1.64402      .   S
    N474   O476      0.93761      .   S
    Zr67   O476      1.64337      .   S
    N477   O478      0.94506      .   S
    Zr76   O478      1.66541      .   S
    N477   O479      0.94465      .   S
    Zr46   O479      1.66489      .   S
    N480   O481      1.27021      .   S
    Zr22   O481      1.93658      .   S
