# CIF file generated by openbabel 2.4.90, see http://openbabel.sf.net
data_I
_chemical_name_common ''
_cell_length_a 19.226
_cell_length_b 22.029
_cell_length_c 18.973
_cell_angle_alpha 101.661
_cell_angle_beta 87.803
_cell_angle_gamma 90.678
_space_group_name_H-M_alt 'P 1'
_space_group_name_Hall 'P 1'
loop_
    _symmetry_equiv_pos_as_xyz
    x,y,z
loop_
    _atom_site_label
    _atom_site_type_symbol
    _atom_site_fract_x
    _atom_site_fract_y
    _atom_site_fract_z
    _atom_site_occupancy
    Y0      Y    0.39499   0.74923   0.99427   1.000
    Y1      Y    0.89528   0.24846   0.99503   1.000
    Y2      Y    0.89236   0.75005   0.00970   1.000
    Y3      Y    0.14225   0.49956   0.50946   1.000
    Y4      Y    0.14509   0.99718   0.49553   1.000
    Y5      Y    0.64478   0.49886   0.49472   1.000
    Y6      Y    0.64247   0.00000   0.50839   1.000
    Y7      Y    0.10780   0.24966   0.99396   1.000
    Y8      Y    0.10505   0.75213   0.00000   1.000
    Y9      Y    0.60575   0.25293   0.00000   1.000
    Y10     Y    0.60772   0.75158   0.99240   1.000
    Y11     Y    0.35783   0.99952   0.49333   1.000
    Y12     Y    0.35497   0.50084   0.50760   1.000
    Y13     Y    0.85535   0.00142   0.50725   1.000
    Y14     Y    0.85754   0.50061   0.49357   1.000
    Y15     Y    0.39325   0.25180   0.00753   1.000
loop_
    _geom_bond_atom_site_label_1
    _geom_bond_atom_site_label_2
    _geom_bond_distance
    _geom_bond_site_symmetry_2
    _ccdc_geom_bond_type
    Y15    Y9        4.08246      .   S
    Y0     Y10       4.08858      .   S
    Y1     Y7        4.08504  1_655   S
    Y2     Y8        4.08643  1_655   S
    Y3     Y12       4.08839      .   S
    Y4     Y11       4.08865      .   S
    Y5     Y14       4.08940      .   S
    Y6     Y13       4.09194      .   S
