# CIF file generated by openbabel 2.4.90, see http://openbabel.sf.net
data_I
_chemical_name_common ''
_cell_length_a 19.226
_cell_length_b 22.029
_cell_length_c 18.973
_cell_angle_alpha 101.661
_cell_angle_beta 87.803
_cell_angle_gamma 90.678
_space_group_name_H-M_alt 'P 1'
_space_group_name_Hall 'P 1'
loop_
    _symmetry_equiv_pos_as_xyz
    x,y,z
loop_
    _atom_site_label
    _atom_site_type_symbol
    _atom_site_fract_x
    _atom_site_fract_y
    _atom_site_fract_z
    _atom_site_occupancy
    Zr0     Zr   0.39325   0.25180   0.00753   1.000
    Zr1     Zr   0.39499   0.74923   0.99427   1.000
    Zr2     Zr   0.89528   0.24846   0.99503   1.000
    Zr3     Zr   0.89236   0.75005   0.00970   1.000
    Zr4     Zr   0.14225   0.49956   0.50946   1.000
    Zr5     Zr   0.14509   0.99718   0.49553   1.000
    Zr6     Zr   0.64478   0.49886   0.49472   1.000
    Zr7     Zr   0.64247   0.00000   0.50839   1.000
    Zr8     Zr   0.10780   0.24966   0.99396   1.000
    Zr9     Zr   0.10505   0.75213   0.00000   1.000
    Zr10    Zr   0.60575   0.25293   0.00000   1.000
    Zr11    Zr   0.60772   0.75158   0.99240   1.000
    Zr12    Zr   0.35783   0.99952   0.49333   1.000
    Zr13    Zr   0.35497   0.50084   0.50760   1.000
    Zr14    Zr   0.85535   0.00142   0.50725   1.000
    Zr15    Zr   0.85754   0.50061   0.49357   1.000
    O16     O    0.49950   0.25236   0.00377   1.000
    O17     O    0.50136   0.75040   0.99333   1.000
    O18     O    0.00154   0.24906   0.99449   1.000
    O19     O    0.99870   0.75109   0.00485   1.000
    O20     O    0.24861   0.50020   0.50853   1.000
    O21     O    0.25146   0.99835   0.49443   1.000
    O22     O    0.75116   0.49973   0.49415   1.000
    O23     O    0.74891   0.00071   0.50782   1.000
    N24     N    0.74959   0.75052   0.50093   1.000
    O25     O    0.78546   0.85430   0.50194   1.000
    O26     O    0.71394   0.64655   0.49993   1.000
    O27     O    0.70340   0.85115   0.50635   1.000
    O28     O    0.79600   0.64983   0.49575   1.000
    N29     N    0.75048   0.25057   0.50124   1.000
    O30     O    0.78690   0.14823   0.50638   1.000
    O31     O    0.71393   0.35269   0.49571   1.000
    O32     O    0.70461   0.15022   0.50582   1.000
    O33     O    0.79614   0.35077   0.49661   1.000
    N34     N    0.00075   0.50005   0.99847   1.000
    O35     O    0.03626   0.60408   0.99859   1.000
    O36     O    0.04691   0.39926   0.99515   1.000
    O37     O    0.95427   0.60079   0.00543   1.000
    O38     O    0.96488   0.39608   0.99799   1.000
    N39     N    0.74880   0.41071   0.20132   1.000
    O40     O    0.78885   0.45111   0.32030   1.000
    O41     O    0.69943   0.34849   0.10779   1.000
    O42     O    0.80098   0.34753   0.10579   1.000
    O43     O    0.70646   0.45198   0.31927   1.000
    N44     N    0.25049   0.74939   0.50203   1.000
    O45     O    0.20425   0.64933   0.50655   1.000
    O46     O    0.21423   0.85140   0.49674   1.000
    O47     O    0.28643   0.64716   0.50727   1.000
    O48     O    0.29647   0.84955   0.49696   1.000
    N49     N    0.00328   0.65705   0.72739   1.000
    O50     O    0.96499   0.70149   0.84304   1.000
    O51     O    0.94909   0.59168   0.63066   1.000
    O52     O    0.04729   0.70252   0.83664   1.000
    O53     O    0.04921   0.58799   0.63372   1.000
    N54     N    0.99852   0.15997   0.70233   1.000
    O55     O    0.03876   0.20047   0.82103   1.000
    O56     O    0.94923   0.09706   0.61068   1.000
    O57     O    0.05084   0.09658   0.60688   1.000
    O58     O    0.95643   0.20144   0.81994   1.000
    N59     N    0.75161   0.09016   0.80035   1.000
    O60     O    0.80130   0.15264   0.89201   1.000
    O61     O    0.79368   0.04875   0.68248   1.000
    O62     O    0.71125   0.04976   0.68159   1.000
    O63     O    0.69974   0.15361   0.89408   1.000
    N64     N    0.25166   0.58975   0.80064   1.000
    O65     O    0.30109   0.65289   0.89194   1.000
    O66     O    0.19942   0.65299   0.89427   1.000
    O67     O    0.29377   0.54811   0.68293   1.000
    O68     O    0.21139   0.54913   0.68193   1.000
    N69     N    0.50596   0.15801   0.72566   1.000
    O70     O    0.45036   0.09213   0.62969   1.000
    O71     O    0.55048   0.08890   0.63190   1.000
    O72     O    0.46711   0.20273   0.84128   1.000
    O73     O    0.54935   0.20304   0.83530   1.000
    N74     N    0.49825   0.66088   0.70100   1.000
    O75     O    0.53873   0.70169   0.81946   1.000
    O76     O    0.55041   0.59781   0.60548   1.000
    O77     O    0.45631   0.70235   0.81894   1.000
    O78     O    0.44878   0.59751   0.60991   1.000
    N79     N    0.00184   0.83894   0.30066   1.000
    O80     O    0.94955   0.90203   0.39613   1.000
    O81     O    0.05119   0.90151   0.39239   1.000
    O82     O    0.96153   0.79893   0.18216   1.000
    O83     O    0.04391   0.79812   0.18088   1.000
    N84     N    0.50102   0.50146   0.99656   1.000
    O85     O    0.46449   0.60341   0.99296   1.000
    O86     O    0.53717   0.39927   0.99828   1.000
    O87     O    0.45501   0.40151   0.00016   1.000
    O88     O    0.54672   0.60158   0.99333   1.000
    N89     N    0.24567   0.09469   0.77512   1.000
    O90     O    0.20044   0.16312   0.86909   1.000
    O91     O    0.28455   0.04927   0.65973   1.000
    O92     O    0.20223   0.04859   0.66429   1.000
    O93     O    0.30084   0.16087   0.87079   1.000
    N94     N    0.49973   0.00135   0.99737   1.000
    O95     O    0.54597   0.90069   0.99361   1.000
    O96     O    0.46392   0.89731   0.99725   1.000
    O97     O    0.45390   0.10223   0.00366   1.000
    O98     O    0.53593   0.10525   0.99795   1.000
    N99     N    0.74456   0.59467   0.77554   1.000
    O100    O    0.79990   0.65951   0.87232   1.000
    O101    O    0.70145   0.54931   0.66412   1.000
    O102    O    0.78381   0.54984   0.66006   1.000
    O103    O    0.69992   0.66387   0.86884   1.000
    N104    N    0.25504   0.40566   0.22721   1.000
    O105    O    0.19999   0.33996   0.13125   1.000
    O106    O    0.21586   0.45038   0.34284   1.000
    O107    O    0.30040   0.33782   0.13266   1.000
    O108    O    0.29819   0.45080   0.33848   1.000
    N109    N    0.49514   0.84385   0.27442   1.000
    O110    O    0.45019   0.91230   0.36863   1.000
    O111    O    0.55034   0.90923   0.37088   1.000
    O112    O    0.45173   0.79868   0.16335   1.000
    O113    O    0.53401   0.79975   0.15868   1.000
    N114    N    0.24840   0.90966   0.20131   1.000
    O115    O    0.30062   0.84741   0.10544   1.000
    O116    O    0.28870   0.94995   0.32025   1.000
    O117    O    0.19896   0.84751   0.10779   1.000
    O118    O    0.20628   0.95025   0.31959   1.000
    N119    N    0.75562   0.90680   0.22682   1.000
    O120    O    0.79876   0.95179   0.33813   1.000
    O121    O    0.80022   0.83759   0.13356   1.000
    O122    O    0.70022   0.84194   0.13006   1.000
    O123    O    0.71639   0.95139   0.34224   1.000
    N124    N    0.24955   0.24930   0.50121   1.000
    O125    O    0.20342   0.35015   0.50683   1.000
    O126    O    0.29595   0.14861   0.49575   1.000
    O127    O    0.21389   0.14520   0.50023   1.000
    O128    O    0.28547   0.35325   0.50241   1.000
    N129    N    0.99841   0.00002   0.99741   1.000
    O130    O    0.03519   0.89803   0.99870   1.000
    O131    O    0.95299   0.90004   0.00113   1.000
    O132    O    0.96319   0.10218   0.99375   1.000
    O133    O    0.04534   0.09989   0.99432   1.000
    N134    N    0.99453   0.34300   0.27593   1.000
    O135    O    0.94960   0.41210   0.36949   1.000
    O136    O    0.03383   0.29843   0.16036   1.000
    O137    O    0.04970   0.40837   0.37252   1.000
    O138    O    0.95155   0.29814   0.16447   1.000
    N139    N    0.50192   0.34020   0.29976   1.000
    O140    O    0.44953   0.40263   0.39568   1.000
    O141    O    0.46172   0.30036   0.18094   1.000
    O142    O    0.55116   0.40288   0.39159   1.000
    O143    O    0.54407   0.29935   0.18006   1.000
loop_
    _geom_bond_atom_site_label_1
    _geom_bond_atom_site_label_2
    _geom_bond_distance
    _geom_bond_site_symmetry_2
    _ccdc_geom_bond_type
    Zr0    O16       2.04123      .   S
    Zr10   O16       2.04123      .   S
    Zr1    O17       2.04429      .   S
    Zr11   O17       2.04429      .   S
    Zr2    O18       2.04252  1_655   S
    Zr8    O18       2.04252      .   S
    Zr3    O19       2.04322      .   S
    Zr9    O19       2.04322  1_455   S
    Zr4    O20       2.04419      .   S
    Zr13   O20       2.04419      .   S
    Zr5    O21       2.04433      .   S
    Zr12   O21       2.04433      .   S
    Zr6    O22       2.04470      .   S
    Zr15   O22       2.04470      .   S
    Zr7    O23       2.04597      .   S
    Zr14   O23       2.04597      .   S
    N24    O25       2.37666      .   S
    Zr14   O25       3.47789  1_545   S
    N24    O26       2.37941      .   S
    Zr6    O26       3.48445      .   S
    N24    O27       2.37914      .   S
    Zr7    O27       3.48754  1_545   S
    N24    O28       2.38284      .   S
    Zr15   O28       3.49860      .   S
    N29    O30       2.39034      .   S
    Zr14   O30       3.50932      .   S
    N29    O31       2.38815      .   S
    Zr6    O31       3.50194      .   S
    N29    O32       2.38707      .   S
    Zr7    O32       3.51387      .   S
    N29    O33       2.38265      .   S
    Zr15   O33       3.50308      .   S
    N34    O35       2.38293      .   S
    Zr9    O35       3.50016  1_554   S
    N34    O36       2.38902      .   S
    Zr8    O36       3.50594      .   S
    N34    O37       2.37898  1_456   S
    Zr3    O37       3.49459      .   S
    N34    O38       2.38248  1_455   S
    Zr2    O38       3.49267      .   S
    N39    O40       2.40524      .   S
    Zr15   O40       3.54833      .   S
    N39    O41       2.24590      .   S
    Zr10   O41       3.21101      .   S
    N39    O42       2.25888      .   S
    Zr2    O42       3.22707  1_556   S
    N39    O43       2.35627      .   S
    Zr6    O43       3.44830      .   S
    N44    O45       2.38329      .   S
    Zr4    O45       3.50490      .   S
    N44    O46       2.38327      .   S
    Zr5    O46       3.49473      .   S
    N44    O47       2.38571      .   S
    Zr13   O47       3.49794      .   S
    N44    O48       2.38574      .   S
    Zr12   O48       3.50789      .   S
    N49    O50       2.31088  1_455   S
    Zr3    O50       3.37970  1_554   S
    N49    O51       2.35999  1_455   S
    Zr15   O51       3.47083      .   S
    N49    O52       2.30033      .   S
    Zr9    O52       3.30143  1_554   S
    N49    O53       2.25186      .   S
    Zr4    O53       3.23347      .   S
    N54    O55       2.40241  1_655   S
    Zr8    O55       3.54455      .   S
    N54    O56       2.22783      .   S
    Zr14   O56       3.17134      .   S
    N54    O57       2.26102  1_655   S
    Zr5    O57       3.23619  1_565   S
    N54    O58       2.35019      .   S
    Zr2    O58       3.43941      .   S
    N59    O60       2.22710      .   S
    Zr2    O60       3.17063      .   S
    N59    O61       2.35407      .   S
    Zr14   O61       3.44555      .   S
    N59    O62       2.40372      .   S
    Zr7    O62       3.54860      .   S
    N59    O63       2.23679      .   S
    Zr10   O63       3.18250  1_554   S
    N64    O65       2.22697      .   S
    Zr1    O65       3.16952      .   S
    N64    O66       2.23638      .   S
    Zr9    O66       3.18258  1_554   S
    N64    O67       2.35264      .   S
    Zr13   O67       3.44442      .   S
    N64    O68       2.40310      .   S
    Zr4    O68       3.53866      .   S
    N69    O70       2.36836      .   S
    Zr12   O70       3.48615  1_565   S
    N69    O71       2.24381      .   S
    Zr7    O71       3.21921      .   S
    N69    O72       2.31489      .   S
    Zr0    O72       3.38353  1_554   S
    N69    O73       2.29916      .   S
    Zr10   O73       3.31535  1_554   S
    N74    O75       2.40117      .   S
    Zr11   O75       3.54613      .   S
    N74    O76       2.25743      .   S
    Zr6    O76       3.22644      .   S
    N74    O77       2.35475      .   S
    Zr1    O77       3.44399      .   S
    N74    O78       2.22708      .   S
    Zr13   O78       3.17210      .   S
    N79    O80       2.25812  1_455   S
    Zr14   O80       3.23328  1_545   S
    N79    O81       2.22602      .   S
    Zr5    O81       3.16906      .   S
    N79    O82       2.39771  1_455   S
    Zr3    O82       3.53694      .   S
    N79    O83       2.38282      .   S
    Zr9    O83       3.53537      .   S
    N84    O85       2.37589      .   S
    Zr1    O85       3.48886      .   S
    N84    O86       2.37076      .   S
    Zr10   O86       3.50402  1_554   S
    N84    O87       2.37594  1_556   S
    Zr0    O87       3.51969      .   S
    N84    O88       2.37595      .   S
    Zr11   O88       3.49621      .   S
    N89    O90       2.24345      .   S
    Zr8    O90       3.21722      .   S
    N89    O91       2.31510      .   S
    Zr12   O91       3.38374  1_565   S
    N89    O92       2.32411      .   S
    Zr5    O92       3.39354  1_565   S
    N89    O93       2.36362      .   S
    Zr0    O93       3.47388  1_554   S
    N94    O95       2.38560  1_545   S
    Zr11   O95       3.50138      .   S
    N94    O96       2.38490  1_545   S
    Zr1    O96       3.49698      .   S
    N94    O97       2.37906  1_556   S
    Zr0    O97       3.49385      .   S
    N94    O98       2.38222      .   S
    Zr10   O98       3.49807  1_554   S
    N99    O100      2.36590      .   S
    Zr3    O100      3.47869  1_554   S
    N99    O101      2.32702      .   S
    Zr6    O101      3.39828      .   S
    N99    O102      2.31556      .   S
    Zr15   O102      3.38697      .   S
    N99    O103      2.23994      .   S
    Zr11   O103      3.20970      .   S
    N104   O105      2.36148      .   S
    Zr8    O105      3.47268  1_556   S
    N104   O106      2.31694      .   S
    Zr4    O106      3.38799      .   S
    N104   O107      2.24472      .   S
    Zr0    O107      3.21735      .   S
    N104   O108      2.32376      .   S
    Zr13   O108      3.39304      .   S
    N109   O110      2.24463      .   S
    Zr12   O110      3.21930      .   S
    N109   O111      2.36597      .   S
    Zr7    O111      3.47898  1_545   S
    N109   O112      2.32272      .   S
    Zr1    O112      3.39041  1_556   S
    N109   O113      2.31375      .   S
    Zr11   O113      3.38037  1_556   S
    N114   O115      2.25424      .   S
    Zr1    O115      3.22077  1_556   S
    N114   O116      2.40591      .   S
    Zr12   O116      3.54865      .   S
    N114   O117      2.24572      .   S
    Zr9    O117      3.21151      .   S
    N114   O118      2.35742      .   S
    Zr5    O118      3.45384      .   S
    N119   O120      2.32354      .   S
    Zr14   O120      3.39065  1_545   S
    N119   O121      2.23928      .   S
    Zr3    O121      3.21085      .   S
    N119   O122      2.36639      .   S
    Zr11   O122      3.48099  1_556   S
    N119   O123      2.31308      .   S
    Zr7    O123      3.38115  1_545   S
    N124   O125      2.38264      .   S
    Zr4    O125      3.49848      .   S
    N124   O126      2.38192      .   S
    Zr12   O126      3.49739  1_565   S
    N124   O127      2.38242      .   S
    Zr5    O127      3.49008  1_565   S
    N124   O128      2.37977      .   S
    Zr13   O128      3.48473      .   S
    N129   O130      2.36861  1_645   S
    Zr9    O130      3.50309  1_554   S
    N129   O131      2.37295  1_546   S
    Zr3    O131      3.52355      .   S
    N129   O132      2.37278      .   S
    Zr2    O132      3.48637      .   S
    N129   O133      2.37872  1_655   S
    Zr8    O133      3.49882      .   S
    N134   O135      2.24414      .   S
    Zr15   O135      3.22225      .   S
    N134   O136      2.31579  1_655   S
    Zr8    O136      3.38598  1_556   S
    N134   O137      2.36721  1_655   S
    Zr4    O137      3.48028      .   S
    N134   O138      2.32410      .   S
    Zr2    O138      3.39397  1_556   S
    N139   O140      2.25800      .   S
    Zr13   O140      3.23017      .   S
    N139   O141      2.40146      .   S
    Zr0    O141      3.54667      .   S
    N139   O142      2.22744      .   S
    Zr6    O142      3.16958      .   S
    N139   O143      2.38207      .   S
    Zr10   O143      3.52541      .   S
