# CIF file generated by openbabel 2.4.90, see http://openbabel.sf.net
data_I
_chemical_name_common ''
_cell_length_a 12.884
_cell_length_b 13.185
_cell_length_c 16.252
_cell_angle_alpha 113.652
_cell_angle_beta 112.964
_cell_angle_gamma 90.493
_space_group_name_H-M_alt 'P 1'
_space_group_name_Hall 'P 1'
loop_
    _symmetry_equiv_pos_as_xyz
    x,y,z
loop_
    _atom_site_label
    _atom_site_type_symbol
    _atom_site_fract_x
    _atom_site_fract_y
    _atom_site_fract_z
    _atom_site_occupancy
    H0      H    0.91244   0.70246   0.84018   1.000
    H1      H    0.13514   0.90990   0.84041   1.000
    H2      H    0.07414   0.86328   0.16159   1.000
    H3      H    0.08753   0.29744   0.15967   1.000
    H4      H    0.29676   0.07136   0.16165   1.000
    H5      H    0.86473   0.09006   0.15948   1.000
    H6      H    0.09209   0.17351   0.99852   1.000
    H7      H    0.75181   0.34680   0.00032   1.000
    H8      H    0.90782   0.82638   0.00133   1.000
    H9      H    0.24817   0.65319   0.99960   1.000
    H10     H    0.82610   0.09456   0.99832   1.000
    H11     H    0.65618   0.75644   0.00048   1.000
    H12     H    0.17377   0.90547   0.00161   1.000
    H13     H    0.34374   0.24350   0.99937   1.000
    C14     C    0.82828   0.23954   0.90919   1.000
    C15     C    0.92474   0.19087   0.90906   1.000
    C16     C    0.08057   0.66978   0.90972   1.000
    C17     C    0.98452   0.71891   0.91059   1.000
    C18     C    0.67145   0.83234   0.90933   1.000
    C19     C    0.71965   0.92806   0.90909   1.000
    C20     C    0.23747   0.07682   0.90977   1.000
    C21     C    0.18969   0.98142   0.91076   1.000
    C22     C    0.17166   0.76042   0.09069   1.000
    C23     C    0.07519   0.80907   0.09080   1.000
    C24     C    0.91941   0.33016   0.09016   1.000
    C25     C    0.01544   0.28101   0.08927   1.000
    C26     C    0.32849   0.16764   0.09053   1.000
    C27     C    0.28026   0.07194   0.09080   1.000
    C28     C    0.76244   0.92312   0.09009   1.000
    C29     C    0.81020   0.01855   0.08912   1.000
    C30     C    0.01767   0.21173   0.99892   1.000
    C31     C    0.82648   0.30913   0.99993   1.000
    C32     C    0.98226   0.78820   0.00095   1.000
    C33     C    0.17348   0.69085   0.99998   1.000
    C34     C    0.78853   0.02071   0.99881   1.000
    C35     C    0.69288   0.83070   0.00003   1.000
    C36     C    0.21135   0.97929   0.00111   1.000
    C37     C    0.30703   0.16925   0.99985   1.000
loop_
    _geom_bond_atom_site_label_1
    _geom_bond_atom_site_label_2
    _geom_bond_distance
    _geom_bond_site_symmetry_2
    _ccdc_geom_bond_type
    C35    H11       1.08770      .   S
    C35    C28       1.39897      .   S
    C35    C18       1.39896  1_554   S
    H7     C31       1.08759  1_554   S
    C32    H8        1.08802      .   S
    C32    C23       1.39619  1_655   S
    C32    C17       1.39623  1_554   S
    C36    H12       1.08784      .   S
    C36    C27       1.39569  1_565   S
    C36    C21       1.39570  1_554   S
    C29    C28       1.40434  1_545   S
    C29    H5        1.08940      .   S
    C29    C34       1.39537  1_554   S
    C25    C24       1.40407  1_455   S
    C25    H3        1.08953      .   S
    C25    C30       1.39588  1_554   S
    C24    C31       1.39952  1_554   S
    C26    C27       1.40404      .   S
    C26    C37       1.39865  1_554   S
    C22    C23       1.40393      .   S
    C22    C33       1.39920  1_554   S
    C27    H4        1.08960      .   S
    C23    H2        1.08962      .   S
    H0     C17       1.08952      .   S
    H1     C21       1.08940      .   S
    C15    C14       1.40394      .   S
    C15    C30       1.39630  1_655   S
    C19    C18       1.40402      .   S
    C19    C34       1.39583  1_565   S
    C14    C31       1.39954      .   S
    C16    C17       1.40407  1_455   S
    C16    C33       1.39963      .   S
    C20    C21       1.40433  1_545   S
    C20    C37       1.39912      .   S
    H10    C34       1.08787      .   S
    H6     C30       1.08802      .   S
    H13    C37       1.08771      .   S
    H9     C33       1.08759      .   S
