# CIF file generated by openbabel 2.4.90, see http://openbabel.sf.net
data_I
_chemical_name_common ''
_cell_length_a 12.884
_cell_length_b 13.185
_cell_length_c 16.252
_cell_angle_alpha 113.652
_cell_angle_beta 112.964
_cell_angle_gamma 90.493
_space_group_name_H-M_alt 'P 1'
_space_group_name_Hall 'P 1'
loop_
    _symmetry_equiv_pos_as_xyz
    x,y,z
loop_
    _atom_site_label
    _atom_site_type_symbol
    _atom_site_fract_x
    _atom_site_fract_y
    _atom_site_fract_z
    _atom_site_occupancy
    C0      C    0.72650   0.21883   0.81474   1.000
    C1      C    0.08700   0.59548   0.81475   1.000
    C2      C    0.59935   0.73068   0.81484   1.000
    C3      C    0.21397   0.08337   0.81465   1.000
    C4      C    0.27345   0.78116   0.18515   1.000
    C5      C    0.91300   0.40448   0.18514   1.000
    C6      C    0.40061   0.26930   0.18501   1.000
    C7      C    0.78594   0.91654   0.18520   1.000
