# CIF file generated by openbabel 2.4.90, see http://openbabel.sf.net
data_I
_chemical_name_common ''
_cell_length_a 12.884
_cell_length_b 13.185
_cell_length_c 16.252
_cell_angle_alpha 113.652
_cell_angle_beta 112.964
_cell_angle_gamma 90.493
_space_group_name_H-M_alt 'P 1'
_space_group_name_Hall 'P 1'
loop_
    _symmetry_equiv_pos_as_xyz
    x,y,z
loop_
    _atom_site_label
    _atom_site_type_symbol
    _atom_site_fract_x
    _atom_site_fract_y
    _atom_site_fract_z
    _atom_site_occupancy
    Zr0     Zr   0.58865   0.13346   0.61281   1.000
    Zr1     Zr   0.02343   0.47920   0.61293   1.000
    Zr2     Zr   0.49010   0.59019   0.61517   1.000
    Zr3     Zr   0.12435   0.02518   0.61551   1.000
    Zr4     Zr   0.41130   0.86651   0.38707   1.000
    Zr5     Zr   0.97658   0.52076   0.38695   1.000
    Zr6     Zr   0.50990   0.40978   0.38470   1.000
    Zr7     Zr   0.87560   0.97475   0.38437   1.000
    N8      N    0.25037   0.05766   0.00059   1.000
    N9      N    0.75468   0.94384   0.01719   1.000
    N10     N    0.06102   0.74825   0.00054   1.000
    N11     N    0.94038   0.26447   0.01723   1.000
    C12     C    0.26057   0.55084   0.61111   1.000
    O13     O    0.17375   0.52768   0.60559   1.000
    O14     O    0.33272   0.56321   0.60523   1.000
    O15     O    0.15687   0.53797   0.52628   1.000
    C16     C    0.35007   0.06011   0.61130   1.000
    O17     O    0.27200   0.04203   0.60548   1.000
    O18     O    0.43130   0.07766   0.60569   1.000
    O19     O    0.36943   0.98827   0.52645   1.000
    C20     C    0.04889   0.25579   0.61651   1.000
    O21     O    0.03470   0.32608   0.60825   1.000
    O22     O    0.06667   0.17117   0.61021   1.000
    O23     O    0.98734   0.15336   0.52782   1.000
    C24     C    0.73944   0.44910   0.38877   1.000
    O25     O    0.82625   0.47226   0.39428   1.000
    O26     O    0.84313   0.46198   0.47360   1.000
    O27     O    0.66728   0.43673   0.39464   1.000
    C28     C    0.08776   0.57535   0.78848   1.000
    O29     O    0.08008   0.63289   0.85993   1.000
    O30     O    0.05011   0.55220   0.73050   1.000
    C31     C    0.43383   0.63950   0.38318   1.000
    O32     O    0.42766   0.71802   0.39151   1.000
    O33     O    0.45999   0.62557   0.47183   1.000
    O34     O    0.45775   0.56113   0.38962   1.000
    C35     C    0.56614   0.36046   0.61668   1.000
    O36     O    0.54223   0.43883   0.61025   1.000
    O37     O    0.54000   0.37439   0.52804   1.000
    O38     O    0.57230   0.28194   0.60835   1.000
    C39     C    0.30050   0.78730   0.21128   1.000
    O40     O    0.22114   0.77341   0.14025   1.000
    O41     O    0.32079   0.82207   0.26944   1.000
    C42     C    0.64988   0.93985   0.38858   1.000
    O43     O    0.56865   0.92231   0.39419   1.000
    O44     O    0.72796   0.95792   0.39441   1.000
    O45     O    0.63053   0.01169   0.47344   1.000
    C46     C    0.41982   0.29652   0.21129   1.000
    O47     O    0.36364   0.21729   0.14023   1.000
    O48     O    0.44185   0.31721   0.26874   1.000
    C49     C    0.20663   0.08421   0.78819   1.000
    O50     O    0.17163   0.04771   0.73108   1.000
    O51     O    0.22233   0.07654   0.85979   1.000
    C52     C    0.79328   0.91569   0.21166   1.000
    O53     O    0.77886   0.92376   0.14454   1.000
    O54     O    0.82829   0.95220   0.26878   1.000
    C55     C    0.95109   0.74415   0.38336   1.000
    O56     O    0.96529   0.67387   0.39162   1.000
    O57     O    0.93330   0.82877   0.38966   1.000
    O58     O    0.01263   0.84658   0.47206   1.000
    C59     C    0.91275   0.42461   0.21141   1.000
    O60     O    0.92052   0.37025   0.14442   1.000
    O61     O    0.95052   0.44776   0.26939   1.000
    C62     C    0.58015   0.70345   0.78856   1.000
    O63     O    0.63760   0.78306   0.86410   1.000
    O64     O    0.55813   0.68277   0.73111   1.000
    C65     C    0.69945   0.21268   0.78861   1.000
    O66     O    0.77917   0.22975   0.86410   1.000
    O67     O    0.67916   0.17791   0.73045   1.000
loop_
    _geom_bond_atom_site_label_1
    _geom_bond_atom_site_label_2
    _geom_bond_distance
    _geom_bond_site_symmetry_2
    _ccdc_geom_bond_type
    C12    O13       1.11638      .   S
    Zr1    O13       2.09622      .   S
    C12    O14       0.98951      .   S
    Zr2    O14       1.98748      .   S
    C12    O15       1.44413      .   S
    Zr5    O15       2.45949  1_655   S
    C16    O17       0.99051      .   S
    Zr3    O17       1.98950      .   S
    C16    O18       1.11549      .   S
    Zr0    O18       2.09472      .   S
    C16    O19       1.44416  1_545   S
    Zr4    O19       2.45962      .   S
    C20    O21       0.99688      .   S
    Zr1    O21       1.99831      .   S
    C20    O22       1.11314      .   S
    Zr3    O22       2.09097      .   S
    C20    O23       1.43469  1_455   S
    Zr7    O23       2.44355  1_565   S
    C24    O25       1.11638      .   S
    Zr5    O25       2.09622      .   S
    C24    O26       1.44413      .   S
    Zr1    O26       2.45949  1_455   S
    C24    O27       0.98947      .   S
    Zr6    O27       1.98740      .   S
    C28    O29       1.14802      .   S
    N10    O29       2.29155  1_554   S
    C28    O30       0.79144      .   S
    Zr1    O30       1.64362      .   S
    C31    O32       0.99697      .   S
    Zr4    O32       1.99782      .   S
    C31    O33       1.43442      .   S
    Zr2    O33       2.44236      .   S
    C31    O34       1.11387      .   S
    Zr6    O34       2.09214      .   S
    C35    O36       1.11385      .   S
    Zr2    O36       2.09211      .   S
    C35    O37       1.43442      .   S
    Zr6    O37       2.44236      .   S
    C35    O38       0.99692      .   S
    Zr0    O38       1.99773      .   S
    C39    O40       1.14781      .   S
    N10    O40       2.29136      .   S
    C39    O41       0.79337      .   S
    Zr4    O41       1.64562      .   S
    C42    O43       1.11548      .   S
    Zr4    O43       2.09469      .   S
    C42    O44       0.99050      .   S
    Zr7    O44       1.98950      .   S
    C42    O45       1.44418  1_565   S
    Zr0    O45       2.45968      .   S
    C46    O47       1.14700      .   S
    N8     O47       2.28925      .   S
    C46    O48       0.78376      .   S
    Zr6    O48       1.62989      .   S
    C49    O50       0.77959      .   S
    Zr3    O50       1.62595      .   S
    C49    O51       1.14733      .   S
    N8     O51       2.28952  1_554   S
    C52    O53       1.08214      .   S
    N9     O53       2.09481      .   S
    C52    O54       0.77975      .   S
    Zr7    O54       1.62616      .   S
    C55    O56       0.99689      .   S
    Zr5    O56       1.99829      .   S
    C55    O57       1.11310      .   S
    Zr7    O57       2.09090      .   S
    C55    O58       1.43466  1_655   S
    Zr3    O58       2.44350  1_545   S
    C59    O60       1.08125      .   S
    N11    O60       2.09516      .   S
    C59    O61       0.79164      .   S
    Zr5    O61       1.64563      .   S
    C62    O63       1.18341      .   S
    N9     O63       2.39673  1_554   S
    C62    O64       0.78364      .   S
    Zr2    O64       1.62976      .   S
    C65    O66       1.18406      .   S
    N11    O66       2.39857  1_554   S
    C65    O67       0.79341      .   S
    Zr0    O67       1.64564      .   S
