# CIF file generated by openbabel 2.4.90, see http://openbabel.sf.net
data_I
_chemical_name_common ''
_cell_length_a 12.884
_cell_length_b 13.185
_cell_length_c 16.252
_cell_angle_alpha 113.652
_cell_angle_beta 112.964
_cell_angle_gamma 90.493
_space_group_name_H-M_alt 'P 1'
_space_group_name_Hall 'P 1'
loop_
    _symmetry_equiv_pos_as_xyz
    x,y,z
loop_
    _atom_site_label
    _atom_site_type_symbol
    _atom_site_fract_x
    _atom_site_fract_y
    _atom_site_fract_z
    _atom_site_occupancy
    Zr0     Zr   0.58865   0.13346   0.61281   1.000
    Zr1     Zr   0.02343   0.47920   0.61293   1.000
    Zr2     Zr   0.49010   0.59019   0.61517   1.000
    Zr3     Zr   0.12435   0.02518   0.61551   1.000
    Zr4     Zr   0.41130   0.86651   0.38707   1.000
    Zr5     Zr   0.97658   0.52076   0.38695   1.000
    Zr6     Zr   0.50990   0.40978   0.38470   1.000
    Zr7     Zr   0.87560   0.97475   0.38437   1.000
    Zr8     Zr   0.80673   0.11568   0.56393   1.000
    Zr9     Zr   0.64310   0.81847   0.23344   1.000
    Zr10    Zr   0.50795   0.78789   0.23189   1.000
    Zr11    Zr   0.75717   0.44795   0.56415   1.000
    Zr12    Zr   0.59189   0.41535   0.23365   1.000
    Zr13    Zr   0.72530   0.44502   0.23204   1.000
    Zr14    Zr   0.48296   0.80846   0.57151   1.000
    Zr15    Zr   0.37758   0.62442   0.22130   1.000
    Zr16    Zr   0.39885   0.49008   0.21839   1.000
    Zr17    Zr   0.08823   0.76307   0.57184   1.000
    Zr18    Zr   0.84690   0.59785   0.22152   1.000
    Zr19    Zr   0.82295   0.72915   0.21853   1.000
    Zr20    Zr   0.19324   0.88424   0.43597   1.000
    Zr21    Zr   0.35685   0.18149   0.76644   1.000
    Zr22    Zr   0.49199   0.21209   0.76799   1.000
    Zr23    Zr   0.24283   0.55205   0.43575   1.000
    Zr24    Zr   0.40811   0.58455   0.76621   1.000
    Zr25    Zr   0.27471   0.55488   0.76782   1.000
    Zr26    Zr   0.51698   0.19149   0.42834   1.000
    Zr27    Zr   0.62237   0.37553   0.77855   1.000
    Zr28    Zr   0.60115   0.50989   0.78147   1.000
    Zr29    Zr   0.91172   0.23688   0.42803   1.000
    Zr30    Zr   0.15311   0.40210   0.77834   1.000
    Zr31    Zr   0.17704   0.27080   0.78133   1.000
    Zr32    Zr   0.62859   0.91010   0.36153   1.000
    Zr33    Zr   0.73428   0.05063   0.50230   1.000
    Zr34    Zr   0.72650   0.21883   0.81474   1.000
    Zr35    Zr   0.73383   0.45189   0.36170   1.000
    Zr36    Zr   0.76828   0.45170   0.50252   1.000
    Zr37    Zr   0.08700   0.59548   0.81475   1.000
    Zr38    Zr   0.42358   0.61489   0.35270   1.000
    Zr39    Zr   0.46779   0.73205   0.50508   1.000
    Zr40    Zr   0.59935   0.73068   0.81484   1.000
    Zr41    Zr   0.93130   0.73835   0.35283   1.000
    Zr42    Zr   0.03771   0.77320   0.50534   1.000
    Zr43    Zr   0.21397   0.08337   0.81465   1.000
    Zr44    Zr   0.37136   0.08986   0.63836   1.000
    Zr45    Zr   0.26569   0.94931   0.49759   1.000
    Zr46    Zr   0.27345   0.78116   0.18515   1.000
    Zr47    Zr   0.26617   0.54803   0.63816   1.000
    Zr48    Zr   0.23173   0.54828   0.49737   1.000
    Zr49    Zr   0.91300   0.40448   0.18514   1.000
    Zr50    Zr   0.57639   0.38507   0.64716   1.000
    Zr51    Zr   0.53217   0.26791   0.49477   1.000
    Zr52    Zr   0.40061   0.26930   0.18501   1.000
    Zr53    Zr   0.06869   0.26159   0.64703   1.000
    Zr54    Zr   0.96225   0.22674   0.49453   1.000
    Zr55    Zr   0.78594   0.91654   0.18520   1.000
    Zr56    Zr   0.63370   0.03360   0.50378   1.000
    Zr57    Zr   0.56355   0.94303   0.41253   1.000
    Zr58    Zr   0.73647   0.97722   0.41610   1.000
    Zr59    Zr   0.59460   0.82200   0.27173   1.000
    Zr60    Zr   0.87023   0.47051   0.50393   1.000
    Zr61    Zr   0.84956   0.47009   0.41265   1.000
    Zr62    Zr   0.68036   0.43896   0.41634   1.000
    Zr63    Zr   0.67833   0.45041   0.27193   1.000
    Zr64    Zr   0.48219   0.63309   0.50578   1.000
    Zr65    Zr   0.45345   0.55574   0.40741   1.000
    Zr66    Zr   0.43168   0.72659   0.41262   1.000
    Zr67    Zr   0.38638   0.57016   0.25378   1.000
    Zr68    Zr   0.02397   0.87284   0.50600   1.000
    Zr69    Zr   0.95541   0.85204   0.40754   1.000
    Zr70    Zr   0.98239   0.68642   0.41281   1.000
    Zr71    Zr   0.87098   0.68444   0.25379   1.000
    Zr72    Zr   0.36626   0.96635   0.49610   1.000
    Zr73    Zr   0.43640   0.05694   0.58734   1.000
    Zr74    Zr   0.26349   0.02272   0.58380   1.000
    Zr75    Zr   0.40535   0.17798   0.72814   1.000
    Zr76    Zr   0.12977   0.52946   0.49596   1.000
    Zr77    Zr   0.15045   0.52985   0.58723   1.000
    Zr78    Zr   0.31965   0.56099   0.58354   1.000
    Zr79    Zr   0.32167   0.54946   0.72792   1.000
    Zr80    Zr   0.51780   0.36687   0.49408   1.000
    Zr81    Zr   0.54654   0.44422   0.59245   1.000
    Zr82    Zr   0.56827   0.27337   0.58724   1.000
    Zr83    Zr   0.61360   0.42980   0.74608   1.000
    Zr84    Zr   0.97598   0.12710   0.49387   1.000
    Zr85    Zr   0.04456   0.14790   0.59233   1.000
    Zr86    Zr   0.01759   0.31353   0.58705   1.000
    Zr87    Zr   0.12903   0.31551   0.74607   1.000
    Zr88    Zr   0.64275   0.26640   0.81935   1.000
    Zr89    Zr   0.72909   0.15282   0.73176   1.000
    Zr90    Zr   0.17476   0.55166   0.81859   1.000
    Zr91    Zr   0.00150   0.57890   0.73211   1.000
    Zr92    Zr   0.55898   0.64569   0.81865   1.000
    Zr93    Zr   0.58213   0.73398   0.73217   1.000
    Zr94    Zr   0.25701   0.17204   0.81749   1.000
    Zr95    Zr   0.14890   0.99722   0.73242   1.000
    Zr96    Zr   0.35720   0.73358   0.18055   1.000
    Zr97    Zr   0.27085   0.84717   0.26813   1.000
    Zr98    Zr   0.82526   0.44831   0.18131   1.000
    Zr99    Zr   0.00000   0.42104   0.26777   1.000
    Zr100   Zr   0.44100   0.35426   0.18117   1.000
    Zr101   Zr   0.41785   0.26601   0.26769   1.000
    Zr102   Zr   0.74291   0.82785   0.18233   1.000
    Zr103   Zr   0.85100   0.00268   0.26743   1.000
    O104    O    0.31532   0.75737   0.18285   1.000
    O105    O    0.42081   0.31178   0.18309   1.000
    O106    O    0.86913   0.42640   0.18323   1.000
    O107    O    0.76442   0.87219   0.18377   1.000
    O108    O    0.40923   0.26766   0.22635   1.000
    O109    O    0.95650   0.41276   0.22646   1.000
    O110    O    0.27215   0.81416   0.22664   1.000
    O111    O    0.81847   0.95961   0.22632   1.000
    O112    O    0.39261   0.53012   0.23609   1.000
    O113    O    0.84697   0.70680   0.23616   1.000
    O114    O    0.38198   0.59729   0.23754   1.000
    O115    O    0.85894   0.64115   0.23765   1.000
    O116    O    0.55127   0.80494   0.25181   1.000
    O117    O    0.70181   0.44772   0.25199   1.000
    O118    O    0.61885   0.82023   0.25259   1.000
    O119    O    0.63511   0.43288   0.25279   1.000
    O120    O    0.40498   0.59252   0.30324   1.000
    O121    O    0.90114   0.71140   0.30331   1.000
    O122    O    0.86330   0.98872   0.32590   1.000
    O123    O    0.46388   0.33789   0.32619   1.000
    O124    O    0.98829   0.47090   0.32736   1.000
    O125    O    0.34108   0.85684   0.32760   1.000
    O126    O    0.61159   0.86605   0.31663   1.000
    O127    O    0.70608   0.45115   0.31682   1.000
    O128    O    0.43852   0.58532   0.38006   1.000
    O129    O    0.42763   0.67074   0.38266   1.000
    O130    O    0.94335   0.79520   0.38019   1.000
    O131    O    0.95684   0.71239   0.38282   1.000
    O132    O    0.59607   0.92657   0.38703   1.000
    O133    O    0.68253   0.94366   0.38881   1.000
    O134    O    0.79170   0.46099   0.38718   1.000
    O135    O    0.70710   0.44542   0.38902   1.000
    O136    O    0.91551   0.91340   0.39596   1.000
    O137    O    0.80604   0.97599   0.40023   1.000
    O138    O    0.92579   0.05093   0.43912   1.000
    O139    O    0.48168   0.48276   0.39606   1.000
    O140    O    0.59513   0.42437   0.40052   1.000
    O141    O    0.51385   0.38832   0.43939   1.000
    O142    O    0.91307   0.49542   0.39980   1.000
    O143    O    0.97948   0.60359   0.39988   1.000
    O144    O    0.05318   0.52511   0.44146   1.000
    O145    O    0.48742   0.90477   0.39980   1.000
    O146    O    0.42149   0.79655   0.39985   1.000
    O147    O    0.38878   0.91643   0.44159   1.000
    O148    O    0.46782   0.59442   0.45660   1.000
    O149    O    0.98969   0.86244   0.45677   1.000
    O150    O    0.59862   0.98832   0.45816   1.000
    O151    O    0.44973   0.72932   0.45885   1.000
    O152    O    0.85989   0.47030   0.45829   1.000
    O153    O    0.01005   0.72981   0.45908   1.000
    O154    O    0.73537   0.01393   0.45920   1.000
    O155    O    0.72432   0.44533   0.45943   1.000
    O156    O    0.93698   0.23181   0.46128   1.000
    O157    O    0.52457   0.22970   0.46156   1.000
    O158    O    0.23728   0.55017   0.46656   1.000
    O159    O    0.22947   0.91677   0.46678   1.000
    O160    O    0.96912   0.17692   0.49420   1.000
    O161    O    0.01027   0.13750   0.54310   1.000
    O162    O    0.52498   0.31739   0.49443   1.000
    O163    O    0.53217   0.40555   0.54326   1.000
    O164    O    0.98992   0.27014   0.54079   1.000
    O165    O    0.55022   0.27064   0.54101   1.000
    O166    O    0.18075   0.53887   0.49667   1.000
    O167    O    0.14011   0.52965   0.54159   1.000
    O168    O    0.31598   0.95783   0.49685   1.000
    O169    O    0.40133   0.01165   0.54172   1.000
    O170    O    0.27569   0.55463   0.54046   1.000
    O171    O    0.26459   0.98601   0.54070   1.000
    O172    O    0.68398   0.04212   0.50304   1.000
    O173    O    0.77050   0.08316   0.53311   1.000
    O174    O    0.81925   0.46110   0.50322   1.000
    O175    O    0.76272   0.44983   0.53333   1.000
    O176    O    0.61117   0.08353   0.55830   1.000
    O177    O    0.94683   0.47486   0.55843   1.000
    O178    O    0.47499   0.68257   0.50543   1.000
    O179    O    0.47537   0.77025   0.53830   1.000
    O180    O    0.03084   0.82302   0.50567   1.000
    O181    O    0.06297   0.76813   0.53859   1.000
    O182    O    0.48614   0.61164   0.56048   1.000
    O183    O    0.07416   0.94901   0.56075   1.000
    O184    O    0.40487   0.57559   0.59936   1.000
    O185    O    0.29291   0.55451   0.61085   1.000
    O186    O    0.19392   0.02395   0.59965   1.000
    O187    O    0.31743   0.05629   0.61108   1.000
    O188    O    0.02051   0.39636   0.59999   1.000
    O189    O    0.04314   0.28756   0.61704   1.000
    O190    O    0.08694   0.50452   0.60008   1.000
    O191    O    0.20831   0.53894   0.61270   1.000
    O192    O    0.57846   0.20342   0.60002   1.000
    O193    O    0.57233   0.32922   0.61720   1.000
    O194    O    0.51252   0.09520   0.60008   1.000
    O195    O    0.40388   0.07340   0.61285   1.000
    O196    O    0.08446   0.08654   0.60392   1.000
    O197    O    0.05662   0.20475   0.61968   1.000
    O198    O    0.51832   0.51721   0.60381   1.000
    O199    O    0.56147   0.41465   0.61980   1.000
    O200    O    0.65887   0.14314   0.67228   1.000
    O201    O    0.01247   0.52905   0.67252   1.000
    O202    O    0.53611   0.66209   0.67367   1.000
    O203    O    0.13662   0.01120   0.67396   1.000
    O204    O    0.29392   0.54875   0.68304   1.000
    O205    O    0.38835   0.13392   0.68325   1.000
    O206    O    0.09886   0.28855   0.69655   1.000
    O207    O    0.59499   0.40743   0.69662   1.000
    O208    O    0.36489   0.56701   0.74706   1.000
    O209    O    0.29819   0.55217   0.74787   1.000
    O210    O    0.38110   0.17973   0.74729   1.000
    O211    O    0.44867   0.19504   0.74806   1.000
    O212    O    0.72780   0.18582   0.77325   1.000
    O213    O    0.04425   0.58719   0.77343   1.000
    O214    O    0.59074   0.73233   0.77351   1.000
    O215    O    0.18143   0.04030   0.77354   1.000
    O216    O    0.14107   0.35881   0.76221   1.000
    O217    O    0.15303   0.29315   0.76370   1.000
    O218    O    0.61798   0.40267   0.76232   1.000
    O219    O    0.60737   0.46984   0.76378   1.000
    O220    O    0.23549   0.12770   0.81607   1.000
    O221    O    0.68463   0.24262   0.81704   1.000
    O222    O    0.13088   0.57357   0.81667   1.000
    O223    O    0.57917   0.68819   0.81675   1.000
    N224    N    0.25037   0.05766   0.00059   1.000
    O225    O    0.30746   0.13806   0.06918   1.000
    O226    O    0.23804   0.06888   0.93140   1.000
    N227    N    0.75468   0.94384   0.01719   1.000
    O228    O    0.76444   0.93184   0.07742   1.000
    O229    O    0.69504   0.86267   0.93964   1.000
    N230    N    0.06102   0.74825   0.00054   1.000
    O231    O    0.14179   0.75952   0.06923   1.000
    O232    O    0.07241   0.69044   0.93139   1.000
    N233    N    0.94038   0.26447   0.01723   1.000
    O234    O    0.92829   0.31589   0.07744   1.000
    O235    O    0.85889   0.24682   0.93959   1.000
    N236    N    0.00000   0.13666   0.83826   1.000
    N237    N    0.70316   0.00000   0.83824   1.000
loop_
    _geom_bond_atom_site_label_1
    _geom_bond_atom_site_label_2
    _geom_bond_distance
    _geom_bond_site_symmetry_2
    _ccdc_geom_bond_type
    Zr96   O104      0.63254      .   S
    Zr46   O104      0.63254      .   S
    Zr100  O105      0.63260      .   S
    Zr52   O105      0.63260      .   S
    Zr98   O106      0.63266      .   S
    Zr49   O106      0.63266      .   S
    Zr102  O107      0.63286      .   S
    Zr55   O107      0.63286      .   S
    Zr52   O108      0.64627      .   S
    Zr101  O108      0.64627      .   S
    Zr49   O109      0.65068      .   S
    Zr99   O109      0.65068  1_455   S
    Zr46   O110      0.64637      .   S
    Zr97   O110      0.64637      .   S
    Zr55   O111      0.64622      .   S
    Zr103  O111      0.64622  1_545   S
    Zr16   O112      0.51459      .   S
    Zr67   O112      0.51459      .   S
    Zr19   O113      0.51461      .   S
    Zr71   O113      0.51461      .   S
    Zr15   O114      0.51504      .   S
    Zr67   O114      0.51504      .   S
    Zr18   O115      0.51511      .   S
    Zr71   O115      0.51511      .   S
    Zr10   O116      0.51515      .   S
    Zr59   O116      0.51515      .   S
    Zr13   O117      0.51515      .   S
    Zr63   O117      0.51515      .   S
    Zr9    O118      0.51497      .   S
    Zr59   O118      0.51497      .   S
    Zr12   O119      0.51501      .   S
    Zr63   O119      0.51501      .   S
    Zr67   O120      0.66995      .   S
    Zr38   O120      0.66995      .   S
    Zr71   O121      0.67016      .   S
    Zr41   O121      0.67016      .   S
    Zr103  O122      0.99265  1_545   S
    Zr7    O122      0.99265      .   S
    Zr101  O123      0.99059      .   S
    Zr6    O123      0.99059      .   S
    Zr99   O124      0.99884  1_455   S
    Zr5    O124      0.99884      .   S
    Zr97   O125      0.99290      .   S
    Zr4    O125      0.99290      .   S
    Zr59   O126      0.67141      .   S
    Zr32   O126      0.67141      .   S
    Zr63   O127      0.67140      .   S
    Zr35   O127      0.67140      .   S
    Zr38   O128      0.67849      .   S
    Zr65   O128      0.67849      .   S
    Zr38   O129      0.68836      .   S
    Zr66   O129      0.68836      .   S
    Zr41   O130      0.67845      .   S
    Zr69   O130      0.67845      .   S
    Zr41   O131      0.68831      .   S
    Zr70   O131      0.68831      .   S
    Zr32   O132      0.67776      .   S
    Zr57   O132      0.67776      .   S
    Zr32   O133      0.68721      .   S
    Zr58   O133      0.68721      .   S
    Zr35   O134      0.67774      .   S
    Zr61   O134      0.67774      .   S
    Zr35   O135      0.68718      .   S
    Zr62   O135      0.68718      .   S
    Zr7    O136      1.00398      .   S
    Zr69   O136      1.00398      .   S
    Zr7    O137      1.02332      .   S
    Zr58   O137      1.02332      .   S
    Zr7    O138      1.02050  1_565   S
    Zr84   O138      1.02050      .   S
    Zr6    O139      1.00407      .   S
    Zr65   O139      1.00407      .   S
    Zr6    O140      1.02238      .   S
    Zr62   O140      1.02238      .   S
    Zr6    O141      1.01947      .   S
    Zr80   O141      1.01947      .   S
    Zr5    O142      1.00465      .   S
    Zr61   O142      1.00465      .   S
    Zr5    O143      1.02337      .   S
    Zr70   O143      1.02337      .   S
    Zr5    O144      1.01884  1_655   S
    Zr76   O144      1.01884      .   S
    Zr4    O145      1.00430      .   S
    Zr57   O145      1.00430      .   S
    Zr4    O146      1.02261      .   S
    Zr66   O146      1.02261      .   S
    Zr4    O147      1.01899      .   S
    Zr72   O147      1.01899      .   S
    Zr65   O148      0.69936      .   S
    Zr64   O148      0.69936      .   S
    Zr69   O149      0.69945      .   S
    Zr68   O149      0.69945  1_455   S
    Zr57   O150      0.69942      .   S
    Zr56   O150      0.69942  1_545   S
    Zr66   O151      0.67952      .   S
    Zr39   O151      0.67952      .   S
    Zr61   O152      0.69941      .   S
    Zr60   O152      0.69941      .   S
    Zr70   O153      0.67961  1_655   S
    Zr42   O153      0.67961      .   S
    Zr58   O154      0.67893  1_565   S
    Zr33   O154      0.67893      .   S
    Zr62   O155      0.67876      .   S
    Zr36   O155      0.67876      .   S
    Zr29   O156      0.54270      .   S
    Zr54   O156      0.54270      .   S
    Zr26   O157      0.54269      .   S
    Zr51   O157      0.54269      .   S
    Zr23   O158      0.54260      .   S
    Zr48   O158      0.54260      .   S
    Zr20   O159      0.54259      .   S
    Zr45   O159      0.54259      .   S
    Zr84   O160      0.66175      .   S
    Zr54   O160      0.66175      .   S
    Zr84   O161      0.69945  1_655   S
    Zr85   O161      0.69945      .   S
    Zr80   O162      0.66168      .   S
    Zr51   O162      0.66168      .   S
    Zr80   O163      0.69937      .   S
    Zr81   O163      0.69937      .   S
    Zr54   O164      0.67961      .   S
    Zr86   O164      0.67961  1_455   S
    Zr51   O165      0.67953      .   S
    Zr82   O165      0.67953      .   S
    Zr76   O166      0.66217      .   S
    Zr48   O166      0.66217      .   S
    Zr76   O167      0.69941      .   S
    Zr77   O167      0.69941      .   S
    Zr72   O168      0.66219      .   S
    Zr45   O168      0.66219      .   S
    Zr72   O169      0.69941  1_565   S
    Zr73   O169      0.69941      .   S
    Zr48   O170      0.67876      .   S
    Zr78   O170      0.67876      .   S
    Zr45   O171      0.67893      .   S
    Zr74   O171      0.67893  1_545   S
    Zr33   O172      0.66220      .   S
    Zr56   O172      0.66220      .   S
    Zr33   O173      0.54259      .   S
    Zr8    O173      0.54259      .   S
    Zr36   O174      0.66217      .   S
    Zr60   O174      0.66217      .   S
    Zr36   O175      0.54260      .   S
    Zr11   O175      0.54260      .   S
    Zr56   O176      1.01903      .   S
    Zr0    O176      1.01903      .   S
    Zr60   O177      1.01885      .   S
    Zr1    O177      1.01885  1_455   S
    Zr39   O178      0.66169      .   S
    Zr64   O178      0.66169      .   S
    Zr39   O179      0.54269      .   S
    Zr14   O179      0.54269      .   S
    Zr42   O180      0.66175      .   S
    Zr68   O180      0.66175      .   S
    Zr42   O181      0.54269      .   S
    Zr17   O181      0.54269      .   S
    Zr64   O182      1.01946      .   S
    Zr2    O182      1.01946      .   S
    Zr68   O183      1.02048      .   S
    Zr3    O183      1.02048  1_545   S
    Zr78   O184      1.02241      .   S
    Zr2    O184      1.02241      .   S
    Zr78   O185      0.68719      .   S
    Zr47   O185      0.68719      .   S
    Zr74   O186      1.02331      .   S
    Zr3    O186      1.02331      .   S
    Zr74   O187      0.68721      .   S
    Zr44   O187      0.68721      .   S
    Zr86   O188      1.02341      .   S
    Zr1    O188      1.02341      .   S
    Zr86   O189      0.68831      .   S
    Zr53   O189      0.68831      .   S
    Zr77   O190      1.00465      .   S
    Zr1    O190      1.00465      .   S
    Zr77   O191      0.67774      .   S
    Zr47   O191      0.67774      .   S
    Zr82   O192      1.02257      .   S
    Zr0    O192      1.02257      .   S
    Zr82   O193      0.68836      .   S
    Zr50   O193      0.68836      .   S
    Zr73   O194      1.00431      .   S
    Zr0    O194      1.00431      .   S
    Zr73   O195      0.67775      .   S
    Zr44   O195      0.67775      .   S
    Zr85   O196      1.00401      .   S
    Zr3    O196      1.00401      .   S
    Zr85   O197      0.67845      .   S
    Zr53   O197      0.67845      .   S
    Zr81   O198      1.00407      .   S
    Zr2    O198      1.00407      .   S
    Zr81   O199      0.67849      .   S
    Zr50   O199      0.67849      .   S
    Zr0    O200      0.99287      .   S
    Zr89   O200      0.99287      .   S
    Zr1    O201      0.99366      .   S
    Zr91   O201      0.99366      .   S
    Zr2    O202      0.99063      .   S
    Zr93   O202      0.99063      .   S
    Zr3    O203      0.99268      .   S
    Zr95   O203      0.99268  1_565   S
    Zr47   O204      0.67141      .   S
    Zr79   O204      0.67141      .   S
    Zr44   O205      0.67142      .   S
    Zr75   O205      0.67142      .   S
    Zr53   O206      0.67016      .   S
    Zr87   O206      0.67016      .   S
    Zr50   O207      0.66996      .   S
    Zr83   O207      0.66996      .   S
    Zr79   O208      0.51501      .   S
    Zr24   O208      0.51501      .   S
    Zr79   O209      0.51515      .   S
    Zr25   O209      0.51515      .   S
    Zr75   O210      0.51496      .   S
    Zr21   O210      0.51496      .   S
    Zr75   O211      0.51515      .   S
    Zr22   O211      0.51515      .   S
    Zr89   O212      0.64637      .   S
    Zr34   O212      0.64637      .   S
    Zr91   O213      0.64632      .   S
    Zr37   O213      0.64632      .   S
    Zr93   O214      0.64627      .   S
    Zr40   O214      0.64627      .   S
    Zr95   O215      0.64622  1_565   S
    Zr43   O215      0.64622      .   S
    Zr87   O216      0.51511      .   S
    Zr30   O216      0.51511      .   S
    Zr87   O217      0.51460      .   S
    Zr31   O217      0.51460      .   S
    Zr83   O218      0.51504      .   S
    Zr27   O218      0.51504      .   S
    Zr83   O219      0.51458      .   S
    Zr28   O219      0.51458      .   S
    Zr43   O220      0.63285      .   S
    Zr94   O220      0.63285      .   S
    Zr34   O221      0.63254      .   S
    Zr88   O221      0.63254      .   S
    Zr37   O222      0.63266      .   S
    Zr90   O222      0.63266      .   S
    Zr40   O223      0.63260      .   S
    Zr92   O223      0.63260      .   S
    N224   O225      1.14287      .   S
    Zr52   O225      1.88842      .   S
    N224   O226      1.14279  1_554   S
    Zr43   O226      1.88825      .   S
    N227   O228      1.01367      .   S
    Zr55   O228      1.75822      .   S
    N227   O229      1.21334  1_554   S
    Zr40   O229      1.96019      .   S
    N230   O231      1.14409      .   S
    Zr46   O231      1.89070      .   S
    N230   O232      1.14405  1_554   S
    Zr37   O232      1.89064      .   S
    N233   O234      1.01488      .   S
    Zr49   O234      1.76058      .   S
    N233   O235      1.21452  1_554   S
    Zr34   O235      1.96230      .   S
