# CIF file generated by openbabel 2.4.90, see http://openbabel.sf.net
data_I
_chemical_name_common ''
_cell_length_a 12.884
_cell_length_b 13.185
_cell_length_c 16.252
_cell_angle_alpha 113.652
_cell_angle_beta 112.964
_cell_angle_gamma 90.493
_space_group_name_H-M_alt 'P 1'
_space_group_name_Hall 'P 1'
loop_
    _symmetry_equiv_pos_as_xyz
    x,y,z
loop_
    _atom_site_label
    _atom_site_type_symbol
    _atom_site_fract_x
    _atom_site_fract_y
    _atom_site_fract_z
    _atom_site_occupancy
    C0      C    0.58865   0.13346   0.61281   1.000
    C1      C    0.02343   0.47920   0.61293   1.000
    C2      C    0.49010   0.59019   0.61517   1.000
    C3      C    0.12435   0.02518   0.61551   1.000
    C4      C    0.41130   0.86651   0.38707   1.000
    C5      C    0.97658   0.52076   0.38695   1.000
    C6      C    0.50990   0.40978   0.38470   1.000
    C7      C    0.87560   0.97475   0.38437   1.000
    C8      C    0.00000   0.13666   0.83826   1.000
    C9      C    0.80673   0.11568   0.56393   1.000
    C10     C    0.64310   0.81847   0.23344   1.000
    C11     C    0.50795   0.78789   0.23189   1.000
    C12     C    0.91244   0.70246   0.84018   1.000
    C13     C    0.75717   0.44795   0.56415   1.000
    C14     C    0.59189   0.41535   0.23365   1.000
    C15     C    0.72530   0.44502   0.23204   1.000
    C16     C    0.70316   0.00000   0.83824   1.000
    C17     C    0.48296   0.80846   0.57151   1.000
    C18     C    0.37758   0.62442   0.22130   1.000
    C19     C    0.39885   0.49008   0.21839   1.000
    C20     C    0.13514   0.90990   0.84041   1.000
    C21     C    0.08823   0.76307   0.57184   1.000
    C22     C    0.84690   0.59785   0.22152   1.000
    C23     C    0.82295   0.72915   0.21853   1.000
    C24     C    0.07414   0.86328   0.16159   1.000
    C25     C    0.19324   0.88424   0.43597   1.000
    C26     C    0.35685   0.18149   0.76644   1.000
    C27     C    0.49199   0.21209   0.76799   1.000
    C28     C    0.08753   0.29744   0.15967   1.000
    C29     C    0.24283   0.55205   0.43575   1.000
    C30     C    0.40811   0.58455   0.76621   1.000
    C31     C    0.27471   0.55488   0.76782   1.000
    C32     C    0.29676   0.07136   0.16165   1.000
    C33     C    0.51698   0.19149   0.42834   1.000
    C34     C    0.62237   0.37553   0.77855   1.000
    C35     C    0.60115   0.50989   0.78147   1.000
    C36     C    0.86473   0.09006   0.15948   1.000
    C37     C    0.91172   0.23688   0.42803   1.000
    C38     C    0.15311   0.40210   0.77834   1.000
    C39     C    0.17704   0.27080   0.78133   1.000
    C40     C    0.09209   0.17351   0.99852   1.000
    C41     C    0.75181   0.34680   0.00032   1.000
    C42     C    0.90782   0.82638   0.00133   1.000
    C43     C    0.24817   0.65319   0.99960   1.000
    C44     C    0.82610   0.09456   0.99832   1.000
    C45     C    0.65618   0.75644   0.00048   1.000
    C46     C    0.17377   0.90547   0.00161   1.000
    C47     C    0.34374   0.24350   0.99937   1.000
    C48     C    0.82828   0.23954   0.90919   1.000
    C49     C    0.92474   0.19087   0.90906   1.000
    C50     C    0.62859   0.91010   0.36153   1.000
    C51     C    0.73428   0.05063   0.50230   1.000
    C52     C    0.72650   0.21883   0.81474   1.000
    C53     C    0.08057   0.66978   0.90972   1.000
    C54     C    0.98452   0.71891   0.91059   1.000
    C55     C    0.73383   0.45189   0.36170   1.000
    C56     C    0.76828   0.45170   0.50252   1.000
    C57     C    0.08700   0.59548   0.81475   1.000
    C58     C    0.67145   0.83234   0.90933   1.000
    C59     C    0.71965   0.92806   0.90909   1.000
    C60     C    0.42358   0.61489   0.35270   1.000
    C61     C    0.46779   0.73205   0.50508   1.000
    C62     C    0.59935   0.73068   0.81484   1.000
    C63     C    0.23747   0.07682   0.90977   1.000
    C64     C    0.18969   0.98142   0.91076   1.000
    C65     C    0.93130   0.73835   0.35283   1.000
    C66     C    0.03771   0.77320   0.50534   1.000
    C67     C    0.21397   0.08337   0.81465   1.000
    C68     C    0.17166   0.76042   0.09069   1.000
    C69     C    0.07519   0.80907   0.09080   1.000
    C70     C    0.37136   0.08986   0.63836   1.000
    C71     C    0.26569   0.94931   0.49759   1.000
    C72     C    0.27345   0.78116   0.18515   1.000
    C73     C    0.91941   0.33016   0.09016   1.000
    C74     C    0.01544   0.28101   0.08927   1.000
    C75     C    0.26617   0.54803   0.63816   1.000
    C76     C    0.23173   0.54828   0.49737   1.000
    C77     C    0.91300   0.40448   0.18514   1.000
    C78     C    0.32849   0.16764   0.09053   1.000
    C79     C    0.28026   0.07194   0.09080   1.000
    C80     C    0.57639   0.38507   0.64716   1.000
    C81     C    0.53217   0.26791   0.49477   1.000
    C82     C    0.40061   0.26930   0.18501   1.000
    C83     C    0.76244   0.92312   0.09009   1.000
    C84     C    0.81020   0.01855   0.08912   1.000
    C85     C    0.06869   0.26159   0.64703   1.000
    C86     C    0.96225   0.22674   0.49453   1.000
    C87     C    0.78594   0.91654   0.18520   1.000
    C88     C    0.01767   0.21173   0.99892   1.000
    C89     C    0.82648   0.30913   0.99993   1.000
    C90     C    0.98226   0.78820   0.00095   1.000
    C91     C    0.17348   0.69085   0.99998   1.000
    C92     C    0.78853   0.02071   0.99881   1.000
    C93     C    0.69288   0.83070   0.00003   1.000
    C94     C    0.21135   0.97929   0.00111   1.000
    C95     C    0.30703   0.16925   0.99985   1.000
    C96     C    0.63370   0.03360   0.50378   1.000
    C97     C    0.56355   0.94303   0.41253   1.000
    C98     C    0.73647   0.97722   0.41610   1.000
    C99     C    0.59460   0.82200   0.27173   1.000
    C100    C    0.87023   0.47051   0.50393   1.000
    C101    C    0.84956   0.47009   0.41265   1.000
    C102    C    0.68036   0.43896   0.41634   1.000
    C103    C    0.67833   0.45041   0.27193   1.000
    C104    C    0.48219   0.63309   0.50578   1.000
    C105    C    0.45345   0.55574   0.40741   1.000
    C106    C    0.43168   0.72659   0.41262   1.000
    C107    C    0.38638   0.57016   0.25378   1.000
    C108    C    0.02397   0.87284   0.50600   1.000
    C109    C    0.95541   0.85204   0.40754   1.000
    C110    C    0.98239   0.68642   0.41281   1.000
    C111    C    0.87098   0.68444   0.25379   1.000
    C112    C    0.36626   0.96635   0.49610   1.000
    C113    C    0.43640   0.05694   0.58734   1.000
    C114    C    0.26349   0.02272   0.58380   1.000
    C115    C    0.40535   0.17798   0.72814   1.000
    C116    C    0.12977   0.52946   0.49596   1.000
    C117    C    0.15045   0.52985   0.58723   1.000
    C118    C    0.31965   0.56099   0.58354   1.000
    C119    C    0.32167   0.54946   0.72792   1.000
    C120    C    0.51780   0.36687   0.49408   1.000
    C121    C    0.54654   0.44422   0.59245   1.000
    C122    C    0.56827   0.27337   0.58724   1.000
    C123    C    0.61360   0.42980   0.74608   1.000
    C124    C    0.97598   0.12710   0.49387   1.000
    C125    C    0.04456   0.14790   0.59233   1.000
    C126    C    0.01759   0.31353   0.58705   1.000
    C127    C    0.12903   0.31551   0.74607   1.000
    C128    C    0.64275   0.26640   0.81935   1.000
    C129    C    0.72909   0.15282   0.73176   1.000
    C130    C    0.17476   0.55166   0.81859   1.000
    C131    C    0.00150   0.57890   0.73211   1.000
    C132    C    0.55898   0.64569   0.81865   1.000
    C133    C    0.58213   0.73398   0.73217   1.000
    C134    C    0.25701   0.17204   0.81749   1.000
    C135    C    0.14890   0.99722   0.73242   1.000
    C136    C    0.35720   0.73358   0.18055   1.000
    C137    C    0.27085   0.84717   0.26813   1.000
    C138    C    0.82526   0.44831   0.18131   1.000
    C139    C    0.00000   0.42104   0.26777   1.000
    C140    C    0.44100   0.35426   0.18117   1.000
    C141    C    0.41785   0.26601   0.26769   1.000
    C142    C    0.74291   0.82785   0.18233   1.000
    C143    C    0.85100   0.00268   0.26743   1.000
    O144    O    0.67453   0.79357   0.00025   1.000
    O145    O    0.72766   0.87691   0.04506   1.000
    O146    O    0.68216   0.83152   0.95468   1.000
    O147    O    0.78914   0.32796   0.00013   1.000
    O148    O    0.94504   0.80729   0.00114   1.000
    O149    O    0.02872   0.79864   0.04588   1.000
    O150    O    0.98339   0.75356   0.95577   1.000
    O151    O    0.19256   0.94238   0.00136   1.000
    O152    O    0.24581   0.02562   0.04595   1.000
    O153    O    0.20052   0.98035   0.95594   1.000
    O154    O    0.78632   0.97084   0.08961   1.000
    O155    O    0.83747   0.05431   0.12430   1.000
    O156    O    0.79936   0.01963   0.04396   1.000
    O157    O    0.96742   0.30559   0.08971   1.000
    O158    O    0.05149   0.28923   0.12447   1.000
    O159    O    0.01656   0.24637   0.04410   1.000
    O160    O    0.77419   0.91983   0.13765   1.000
    O161    O    0.91620   0.36732   0.13765   1.000
    O162    O    0.87294   0.31964   0.04504   1.000
    O163    O    0.30437   0.11979   0.09066   1.000
    O164    O    0.36455   0.21847   0.13777   1.000
    O165    O    0.31776   0.16844   0.04519   1.000
    O166    O    0.12343   0.78474   0.09075   1.000
    O167    O    0.22256   0.77079   0.13792   1.000
    O168    O    0.17257   0.72563   0.04533   1.000
    O169    O    0.28851   0.07165   0.12623   1.000
    O170    O    0.07466   0.83617   0.12620   1.000
    O171    O    0.31532   0.75737   0.18285   1.000
    O172    O    0.42081   0.31178   0.18309   1.000
    O173    O    0.86913   0.42640   0.18323   1.000
    O174    O    0.76442   0.87219   0.18377   1.000
    O175    O    0.40923   0.26766   0.22635   1.000
    O176    O    0.95650   0.41276   0.22646   1.000
    O177    O    0.27215   0.81416   0.22664   1.000
    O178    O    0.81847   0.95961   0.22632   1.000
    O179    O    0.39261   0.53012   0.23609   1.000
    O180    O    0.84697   0.70680   0.23616   1.000
    O181    O    0.38198   0.59729   0.23754   1.000
    O182    O    0.85894   0.64115   0.23765   1.000
    O183    O    0.55127   0.80494   0.25181   1.000
    O184    O    0.70181   0.44772   0.25199   1.000
    O185    O    0.61885   0.82023   0.25259   1.000
    O186    O    0.63511   0.43288   0.25279   1.000
    O187    O    0.40498   0.59252   0.30324   1.000
    O188    O    0.90114   0.71140   0.30331   1.000
    O189    O    0.86330   0.98872   0.32590   1.000
    O190    O    0.46388   0.33789   0.32619   1.000
    O191    O    0.98829   0.47090   0.32736   1.000
    O192    O    0.34108   0.85684   0.32760   1.000
    O193    O    0.61159   0.86605   0.31663   1.000
    O194    O    0.70608   0.45115   0.31682   1.000
    O195    O    0.43852   0.58532   0.38006   1.000
    O196    O    0.42763   0.67074   0.38266   1.000
    O197    O    0.94335   0.79520   0.38019   1.000
    O198    O    0.95684   0.71239   0.38282   1.000
    O199    O    0.59607   0.92657   0.38703   1.000
    O200    O    0.68253   0.94366   0.38881   1.000
    O201    O    0.79170   0.46099   0.38718   1.000
    O202    O    0.70710   0.44542   0.38902   1.000
    O203    O    0.91551   0.91340   0.39596   1.000
    O204    O    0.80604   0.97599   0.40023   1.000
    O205    O    0.92579   0.05093   0.43912   1.000
    O206    O    0.48168   0.48276   0.39606   1.000
    O207    O    0.59513   0.42437   0.40052   1.000
    O208    O    0.51385   0.38832   0.43939   1.000
    O209    O    0.91307   0.49542   0.39980   1.000
    O210    O    0.97948   0.60359   0.39988   1.000
    O211    O    0.05318   0.52511   0.44146   1.000
    O212    O    0.48742   0.90477   0.39980   1.000
    O213    O    0.42149   0.79655   0.39985   1.000
    O214    O    0.38878   0.91643   0.44159   1.000
    O215    O    0.46782   0.59442   0.45660   1.000
    O216    O    0.98969   0.86244   0.45677   1.000
    O217    O    0.59862   0.98832   0.45816   1.000
    O218    O    0.44973   0.72932   0.45885   1.000
    O219    O    0.85989   0.47030   0.45829   1.000
    O220    O    0.01005   0.72981   0.45908   1.000
    O221    O    0.73537   0.01393   0.45920   1.000
    O222    O    0.72432   0.44533   0.45943   1.000
    O223    O    0.93698   0.23181   0.46128   1.000
    O224    O    0.52457   0.22970   0.46156   1.000
    O225    O    0.23728   0.55017   0.46656   1.000
    O226    O    0.22947   0.91677   0.46678   1.000
    O227    O    0.96912   0.17692   0.49420   1.000
    O228    O    0.01027   0.13750   0.54310   1.000
    O229    O    0.52498   0.31739   0.49443   1.000
    O230    O    0.53217   0.40555   0.54326   1.000
    O231    O    0.98992   0.27014   0.54079   1.000
    O232    O    0.55022   0.27064   0.54101   1.000
    O233    O    0.18075   0.53887   0.49667   1.000
    O234    O    0.14011   0.52965   0.54159   1.000
    O235    O    0.31598   0.95783   0.49685   1.000
    O236    O    0.40133   0.01165   0.54172   1.000
    O237    O    0.27569   0.55463   0.54046   1.000
    O238    O    0.26459   0.98601   0.54070   1.000
    O239    O    0.68398   0.04212   0.50304   1.000
    O240    O    0.77050   0.08316   0.53311   1.000
    O241    O    0.81925   0.46110   0.50322   1.000
    O242    O    0.76272   0.44983   0.53333   1.000
    O243    O    0.61117   0.08353   0.55830   1.000
    O244    O    0.94683   0.47486   0.55843   1.000
    O245    O    0.47499   0.68257   0.50543   1.000
    O246    O    0.47537   0.77025   0.53830   1.000
    O247    O    0.03084   0.82302   0.50567   1.000
    O248    O    0.06297   0.76813   0.53859   1.000
    O249    O    0.48614   0.61164   0.56048   1.000
    O250    O    0.07416   0.94901   0.56075   1.000
    O251    O    0.40487   0.57559   0.59936   1.000
    O252    O    0.29291   0.55451   0.61085   1.000
    O253    O    0.19392   0.02395   0.59965   1.000
    O254    O    0.31743   0.05629   0.61108   1.000
    O255    O    0.02051   0.39636   0.59999   1.000
    O256    O    0.04314   0.28756   0.61704   1.000
    O257    O    0.08694   0.50452   0.60008   1.000
    O258    O    0.20831   0.53894   0.61270   1.000
    O259    O    0.57846   0.20342   0.60002   1.000
    O260    O    0.57233   0.32922   0.61720   1.000
    O261    O    0.51252   0.09520   0.60008   1.000
    O262    O    0.40388   0.07340   0.61285   1.000
    O263    O    0.08446   0.08654   0.60392   1.000
    O264    O    0.05662   0.20475   0.61968   1.000
    O265    O    0.51832   0.51721   0.60381   1.000
    O266    O    0.56147   0.41465   0.61980   1.000
    O267    O    0.65887   0.14314   0.67228   1.000
    O268    O    0.01247   0.52905   0.67252   1.000
    O269    O    0.53611   0.66209   0.67367   1.000
    O270    O    0.13662   0.01120   0.67396   1.000
    O271    O    0.29392   0.54875   0.68304   1.000
    O272    O    0.38835   0.13392   0.68325   1.000
    O273    O    0.09886   0.28855   0.69655   1.000
    O274    O    0.59499   0.40743   0.69662   1.000
    O275    O    0.36489   0.56701   0.74706   1.000
    O276    O    0.29819   0.55217   0.74787   1.000
    O277    O    0.38110   0.17973   0.74729   1.000
    O278    O    0.44867   0.19504   0.74806   1.000
    O279    O    0.72780   0.18582   0.77325   1.000
    O280    O    0.04425   0.58719   0.77343   1.000
    O281    O    0.59074   0.73233   0.77351   1.000
    O282    O    0.18143   0.04030   0.77354   1.000
    O283    O    0.14107   0.35881   0.76221   1.000
    O284    O    0.15303   0.29315   0.76370   1.000
    O285    O    0.61798   0.40267   0.76232   1.000
    O286    O    0.60737   0.46984   0.76378   1.000
    O287    O    0.23549   0.12770   0.81607   1.000
    O288    O    0.22572   0.08009   0.86221   1.000
    O289    O    0.68463   0.24262   0.81704   1.000
    O290    O    0.77739   0.22918   0.86196   1.000
    O291    O    0.13088   0.57357   0.81667   1.000
    O292    O    0.08379   0.63263   0.86223   1.000
    O293    O    0.57917   0.68819   0.81675   1.000
    O294    O    0.63540   0.78151   0.86209   1.000
    O295    O    0.94848   0.71069   0.87539   1.000
    O296    O    0.16242   0.94566   0.87559   1.000
    O297    O    0.87651   0.21520   0.90912   1.000
    O298    O    0.97121   0.20130   0.95399   1.000
    O299    O    0.69555   0.88020   0.90921   1.000
    O300    O    0.75409   0.97439   0.95395   1.000
    O301    O    0.82738   0.27433   0.95456   1.000
    O302    O    0.03254   0.69435   0.91016   1.000
    O303    O    0.12703   0.68031   0.95485   1.000
    O304    O    0.21358   0.02912   0.91027   1.000
    O305    O    0.27225   0.12303   0.95481   1.000
    O306    O    0.80731   0.05763   0.99856   1.000
    O307    O    0.05488   0.19262   0.99872   1.000
    O308    O    0.32539   0.20637   0.99961   1.000
    O309    O    0.21083   0.67202   0.99979   1.000
loop_
    _geom_bond_atom_site_label_1
    _geom_bond_atom_site_label_2
    _geom_bond_distance
    _geom_bond_site_symmetry_2
    _ccdc_geom_bond_type
    C93    O144      0.54385      .   S
    C45    O144      0.54385      .   S
    C93    O145      0.69948      .   S
    C83    O145      0.69948      .   S
    C93    O146      0.69948  1_554   S
    C58    O146      0.69948      .   S
    C41    O147      0.54380      .   S
    C89    O147      0.54380  1_556   S
    C90    O148      0.54401      .   S
    C42    O148      0.54401      .   S
    C90    O149      0.69810  1_655   S
    C69    O149      0.69810      .   S
    C90    O150      0.69812  1_554   S
    C54    O150      0.69812      .   S
    C94    O151      0.54392      .   S
    C46    O151      0.54392      .   S
    C94    O152      0.69784  1_565   S
    C79    O152      0.69784      .   S
    C94    O153      0.69785  1_554   S
    C64    O153      0.69785      .   S
    C84    O154      0.70217  1_545   S
    C83    O154      0.70217      .   S
    C84    O155      0.54470      .   S
    C36    O155      0.54470      .   S
    C84    O156      0.69769      .   S
    C92    O156      0.69769  1_556   S
    C74    O157      0.70203  1_455   S
    C73    O157      0.70203      .   S
    C74    O158      0.54476      .   S
    C28    O158      0.54476      .   S
    C74    O159      0.69794      .   S
    C88    O159      0.69794  1_556   S
    C83    O160      0.74687      .   S
    C87    O160      0.74687      .   S
    C73    O161      0.74784      .   S
    C77    O161      0.74784      .   S
    C73    O162      0.69976      .   S
    C89    O162      0.69976  1_556   S
    C78    O163      0.70202      .   S
    C79    O163      0.70202      .   S
    C78    O164      0.74697      .   S
    C82    O164      0.74697      .   S
    C78    O165      0.69933      .   S
    C95    O165      0.69933  1_556   S
    C68    O166      0.70197      .   S
    C69    O166      0.70197      .   S
    C68    O167      0.74788      .   S
    C72    O167      0.74788      .   S
    C68    O168      0.69960      .   S
    C91    O168      0.69960  1_556   S
    C79    O169      0.54480      .   S
    C32    O169      0.54480      .   S
    C69    O170      0.54481      .   S
    C24    O170      0.54481      .   S
    C136   O171      0.63254      .   S
    C72    O171      0.63254      .   S
    C140   O172      0.63260      .   S
    C82    O172      0.63260      .   S
    C138   O173      0.63266      .   S
    C77    O173      0.63266      .   S
    C142   O174      0.63286      .   S
    C87    O174      0.63286      .   S
    C82    O175      0.64627      .   S
    C141   O175      0.64627      .   S
    C77    O176      0.65068      .   S
    C139   O176      0.65068  1_455   S
    C72    O177      0.64637      .   S
    C137   O177      0.64637      .   S
    C87    O178      0.64622      .   S
    C143   O178      0.64622  1_545   S
    C19    O179      0.51459      .   S
    C107   O179      0.51459      .   S
    C23    O180      0.51461      .   S
    C111   O180      0.51461      .   S
    C18    O181      0.51504      .   S
    C107   O181      0.51504      .   S
    C22    O182      0.51511      .   S
    C111   O182      0.51511      .   S
    C11    O183      0.51515      .   S
    C99    O183      0.51515      .   S
    C15    O184      0.51515      .   S
    C103   O184      0.51515      .   S
    C10    O185      0.51497      .   S
    C99    O185      0.51497      .   S
    C14    O186      0.51501      .   S
    C103   O186      0.51501      .   S
    C107   O187      0.66995      .   S
    C60    O187      0.66995      .   S
    C111   O188      0.67016      .   S
    C65    O188      0.67016      .   S
    C143   O189      0.99265  1_545   S
    C7     O189      0.99265      .   S
    C141   O190      0.99059      .   S
    C6     O190      0.99059      .   S
    C139   O191      0.99884  1_455   S
    C5     O191      0.99884      .   S
    C137   O192      0.99290      .   S
    C4     O192      0.99290      .   S
    C99    O193      0.67141      .   S
    C50    O193      0.67141      .   S
    C103   O194      0.67140      .   S
    C55    O194      0.67140      .   S
    C60    O195      0.67849      .   S
    C105   O195      0.67849      .   S
    C60    O196      0.68836      .   S
    C106   O196      0.68836      .   S
    C65    O197      0.67845      .   S
    C109   O197      0.67845      .   S
    C65    O198      0.68831      .   S
    C110   O198      0.68831      .   S
    C50    O199      0.67776      .   S
    C97    O199      0.67776      .   S
    C50    O200      0.68721      .   S
    C98    O200      0.68721      .   S
    C55    O201      0.67774      .   S
    C101   O201      0.67774      .   S
    C55    O202      0.68718      .   S
    C102   O202      0.68718      .   S
    C7     O203      1.00398      .   S
    C109   O203      1.00398      .   S
    C7     O204      1.02332      .   S
    C98    O204      1.02332      .   S
    C7     O205      1.02050  1_565   S
    C124   O205      1.02050      .   S
    C6     O206      1.00407      .   S
    C105   O206      1.00407      .   S
    C6     O207      1.02238      .   S
    C102   O207      1.02238      .   S
    C6     O208      1.01947      .   S
    C120   O208      1.01947      .   S
    C5     O209      1.00465      .   S
    C101   O209      1.00465      .   S
    C5     O210      1.02337      .   S
    C110   O210      1.02337      .   S
    C5     O211      1.01884  1_655   S
    C116   O211      1.01884      .   S
    C4     O212      1.00430      .   S
    C97    O212      1.00430      .   S
    C4     O213      1.02261      .   S
    C106   O213      1.02261      .   S
    C4     O214      1.01899      .   S
    C112   O214      1.01899      .   S
    C105   O215      0.69936      .   S
    C104   O215      0.69936      .   S
    C109   O216      0.69945      .   S
    C108   O216      0.69945  1_455   S
    C97    O217      0.69942      .   S
    C96    O217      0.69942  1_545   S
    C106   O218      0.67952      .   S
    C61    O218      0.67952      .   S
    C101   O219      0.69941      .   S
    C100   O219      0.69941      .   S
    C110   O220      0.67961  1_655   S
    C66    O220      0.67961      .   S
    C98    O221      0.67893  1_565   S
    C51    O221      0.67893      .   S
    C102   O222      0.67876      .   S
    C56    O222      0.67876      .   S
    C37    O223      0.54270      .   S
    C86    O223      0.54270      .   S
    C33    O224      0.54269      .   S
    C81    O224      0.54269      .   S
    C29    O225      0.54260      .   S
    C76    O225      0.54260      .   S
    C25    O226      0.54259      .   S
    C71    O226      0.54259      .   S
    C124   O227      0.66175      .   S
    C86    O227      0.66175      .   S
    C124   O228      0.69945  1_655   S
    C125   O228      0.69945      .   S
    C120   O229      0.66168      .   S
    C81    O229      0.66168      .   S
    C120   O230      0.69937      .   S
    C121   O230      0.69937      .   S
    C86    O231      0.67961      .   S
    C126   O231      0.67961  1_455   S
    C81    O232      0.67953      .   S
    C122   O232      0.67953      .   S
    C116   O233      0.66217      .   S
    C76    O233      0.66217      .   S
    C116   O234      0.69941      .   S
    C117   O234      0.69941      .   S
    C112   O235      0.66219      .   S
    C71    O235      0.66219      .   S
    C112   O236      0.69941  1_565   S
    C113   O236      0.69941      .   S
    C76    O237      0.67876      .   S
    C118   O237      0.67876      .   S
    C71    O238      0.67893      .   S
    C114   O238      0.67893  1_545   S
    C51    O239      0.66220      .   S
    C96    O239      0.66220      .   S
    C51    O240      0.54259      .   S
    C9     O240      0.54259      .   S
    C56    O241      0.66217      .   S
    C100   O241      0.66217      .   S
    C56    O242      0.54260      .   S
    C13    O242      0.54260      .   S
    C96    O243      1.01903      .   S
    C0     O243      1.01903      .   S
    C100   O244      1.01885      .   S
    C1     O244      1.01885  1_455   S
    C61    O245      0.66169      .   S
    C104   O245      0.66169      .   S
    C61    O246      0.54269      .   S
    C17    O246      0.54269      .   S
    C66    O247      0.66175      .   S
    C108   O247      0.66175      .   S
    C66    O248      0.54269      .   S
    C21    O248      0.54269      .   S
    C104   O249      1.01946      .   S
    C2     O249      1.01946      .   S
    C108   O250      1.02048      .   S
    C3     O250      1.02048  1_545   S
    C118   O251      1.02241      .   S
    C2     O251      1.02241      .   S
    C118   O252      0.68719      .   S
    C75    O252      0.68719      .   S
    C114   O253      1.02331      .   S
    C3     O253      1.02331      .   S
    C114   O254      0.68721      .   S
    C70    O254      0.68721      .   S
    C126   O255      1.02341      .   S
    C1     O255      1.02341      .   S
    C126   O256      0.68831      .   S
    C85    O256      0.68831      .   S
    C117   O257      1.00465      .   S
    C1     O257      1.00465      .   S
    C117   O258      0.67774      .   S
    C75    O258      0.67774      .   S
    C122   O259      1.02257      .   S
    C0     O259      1.02257      .   S
    C122   O260      0.68836      .   S
    C80    O260      0.68836      .   S
    C113   O261      1.00431      .   S
    C0     O261      1.00431      .   S
    C113   O262      0.67775      .   S
    C70    O262      0.67775      .   S
    C125   O263      1.00401      .   S
    C3     O263      1.00401      .   S
    C125   O264      0.67845      .   S
    C85    O264      0.67845      .   S
    C121   O265      1.00407      .   S
    C2     O265      1.00407      .   S
    C121   O266      0.67849      .   S
    C80    O266      0.67849      .   S
    C0     O267      0.99287      .   S
    C129   O267      0.99287      .   S
    C1     O268      0.99366      .   S
    C131   O268      0.99366      .   S
    C2     O269      0.99063      .   S
    C133   O269      0.99063      .   S
    C3     O270      0.99268      .   S
    C135   O270      0.99268  1_565   S
    C75    O271      0.67141      .   S
    C119   O271      0.67141      .   S
    C70    O272      0.67142      .   S
    C115   O272      0.67142      .   S
    C85    O273      0.67016      .   S
    C127   O273      0.67016      .   S
    C80    O274      0.66996      .   S
    C123   O274      0.66996      .   S
    C119   O275      0.51501      .   S
    C30    O275      0.51501      .   S
    C119   O276      0.51515      .   S
    C31    O276      0.51515      .   S
    C115   O277      0.51496      .   S
    C26    O277      0.51496      .   S
    C115   O278      0.51515      .   S
    C27    O278      0.51515      .   S
    C129   O279      0.64637      .   S
    C52    O279      0.64637      .   S
    C131   O280      0.64632      .   S
    C57    O280      0.64632      .   S
    C133   O281      0.64627      .   S
    C62    O281      0.64627      .   S
    C135   O282      0.64622  1_565   S
    C67    O282      0.64622      .   S
    C127   O283      0.51511      .   S
    C38    O283      0.51511      .   S
    C127   O284      0.51460      .   S
    C39    O284      0.51460      .   S
    C123   O285      0.51504      .   S
    C34    O285      0.51504      .   S
    C123   O286      0.51458      .   S
    C35    O286      0.51458      .   S
    C67    O287      0.63285      .   S
    C134   O287      0.63285      .   S
    C67    O288      0.74687      .   S
    C63    O288      0.74687      .   S
    C52    O289      0.63254      .   S
    C128   O289      0.63254      .   S
    C52    O290      0.74787      .   S
    C48    O290      0.74787      .   S
    C57    O291      0.63266      .   S
    C130   O291      0.63266      .   S
    C57    O292      0.74784      .   S
    C53    O292      0.74784      .   S
    C62    O293      0.63260      .   S
    C132   O293      0.63260      .   S
    C62    O294      0.74697      .   S
    C58    O294      0.74697      .   S
    C12    O295      0.54476      .   S
    C54    O295      0.54476      .   S
    C20    O296      0.54470      .   S
    C64    O296      0.54470      .   S
    C49    O297      0.70197      .   S
    C48    O297      0.70197      .   S
    C49    O298      0.69815      .   S
    C88    O298      0.69815  1_455   S
    C59    O299      0.70201      .   S
    C58    O299      0.70201      .   S
    C59    O300      0.69792      .   S
    C92    O300      0.69792  1_545   S
    C48    O301      0.69977      .   S
    C89    O301      0.69977      .   S
    C53    O302      0.70203      .   S
    C54    O302      0.70203  1_655   S
    C53    O303      0.69982      .   S
    C91    O303      0.69982      .   S
    C63    O304      0.70216      .   S
    C64    O304      0.70216  1_565   S
    C63    O305      0.69956      .   S
    C95    O305      0.69956      .   S
    C44    O306      0.54394      .   S
    C92    O306      0.54394      .   S
    C40    O307      0.54401      .   S
    C88    O307      0.54401      .   S
    C47    O308      0.54385      .   S
    C95    O308      0.54385      .   S
    C43    O309      0.54379      .   S
    C91    O309      0.54379      .   S
