# CIF file generated by openbabel 2.4.90, see http://openbabel.sf.net
data_I
_chemical_name_common ''
_cell_length_a 17.315
_cell_length_b 19.3
_cell_length_c 22.368
_cell_angle_alpha 90
_cell_angle_beta 90.002
_cell_angle_gamma 94.969
_space_group_name_H-M_alt 'P 1'
_space_group_name_Hall 'P 1'
loop_
    _symmetry_equiv_pos_as_xyz
    x,y,z
loop_
    _atom_site_label
    _atom_site_type_symbol
    _atom_site_fract_x
    _atom_site_fract_y
    _atom_site_fract_z
    _atom_site_occupancy
    H0      H    0.02578   0.15637   0.44819   1.000
    H1      H    0.52577   0.15637   0.44819   1.000
    H2      H    0.49840   0.24795   0.37245   1.000
    H3      H    0.99840   0.24794   0.37245   1.000
    H4      H    0.25517   0.14415   0.37542   1.000
    H5      H    0.75517   0.14416   0.37542   1.000
    H6      H    0.20394   0.50573   0.15140   1.000
    H7      H    0.70394   0.50573   0.15140   1.000
    H8      H    0.14785   0.43050   0.23451   1.000
    H9      H    0.64785   0.43050   0.23451   1.000
    H10     H    0.29778   0.27482   0.17732   1.000
    H11     H    0.79778   0.27482   0.17732   1.000
    H12     H    0.34717   0.35619   0.09811   1.000
    H13     H    0.84717   0.35619   0.09811   1.000
    H14     H    0.06794   0.02849   0.31139   1.000
    H15     H    0.56795   0.02849   0.31140   1.000
    H16     H    0.15661   0.07967   0.22934   1.000
    H17     H    0.65661   0.07967   0.22934   1.000
    H18     H    0.39372   0.16466   0.26455   1.000
    H19     H    0.89372   0.16466   0.26455   1.000
    H20     H    0.17841   0.32968   0.96477   1.000
    H21     H    0.67841   0.32968   0.96477   1.000
    H22     H    0.14849   0.23227   0.03640   1.000
    H23     H    0.64849   0.23227   0.03640   1.000
    H24     H    0.00889   0.36863   0.13528   1.000
    H25     H    0.50889   0.36863   0.13520   1.000
    H26     H    0.04329   0.45929   0.05976   1.000
    H27     H    0.54329   0.45929   0.05976   1.000
    H28     H    0.47426   0.34364   0.94810   1.000
    H29     H    0.97426   0.34364   0.94818   1.000
    H30     H    0.00163   0.25206   0.87243   1.000
    H31     H    0.50163   0.25206   0.87243   1.000
    H32     H    0.24485   0.35583   0.87541   1.000
    H33     H    0.74485   0.35583   0.87540   1.000
    H34     H    0.29604   0.99420   0.65140   1.000
    H35     H    0.79604   0.99421   0.65142   1.000
    H36     H    0.35214   0.06947   0.73450   1.000
    H37     H    0.85214   0.06947   0.73453   1.000
    H38     H    0.20227   0.22518   0.67700   1.000
    H39     H    0.70227   0.22517   0.67730   1.000
    H40     H    0.15287   0.14380   0.59808   1.000
    H41     H    0.65287   0.14379   0.59808   1.000
    H42     H    0.43210   0.47152   0.81135   1.000
    H43     H    0.93209   0.47152   0.81136   1.000
    H44     H    0.34343   0.42035   0.72929   1.000
    H45     H    0.84343   0.42034   0.72930   1.000
    H46     H    0.10629   0.33531   0.76455   1.000
    H47     H    0.60629   0.33531   0.76455   1.000
    H48     H    0.32166   0.17032   0.46473   1.000
    H49     H    0.82166   0.17033   0.46473   1.000
    H50     H    0.35157   0.26773   0.53636   1.000
    H51     H    0.85157   0.26773   0.53636   1.000
    H52     H    0.49108   0.13133   0.63529   1.000
    H53     H    0.99108   0.13134   0.63529   1.000
    H54     H    0.45668   0.04067   0.55977   1.000
    H55     H    0.95668   0.04068   0.55977   1.000
    H56     H    0.47423   0.84360   0.55179   1.000
    H57     H    0.97423   0.84360   0.55179   1.000
    H58     H    0.00161   0.75202   0.62753   1.000
    H59     H    0.50161   0.75202   0.62753   1.000
    H60     H    0.24484   0.85581   0.62450   1.000
    H61     H    0.74484   0.85581   0.62456   1.000
    H62     H    0.29607   0.49423   0.84859   1.000
    H63     H    0.79606   0.49423   0.84850   1.000
    H64     H    0.35215   0.56946   0.76540   1.000
    H65     H    0.85215   0.56946   0.76540   1.000
    H66     H    0.20224   0.72515   0.82260   1.000
    H67     H    0.70224   0.72515   0.82260   1.000
    H68     H    0.15284   0.64378   0.90188   1.000
    H69     H    0.65284   0.64378   0.90188   1.000
    H70     H    0.43207   0.97148   0.68859   1.000
    H71     H    0.93206   0.97148   0.68859   1.000
    H72     H    0.34340   0.92031   0.77065   1.000
    H73     H    0.84340   0.92031   0.77065   1.000
    H74     H    0.10628   0.83530   0.73543   1.000
    H75     H    0.60628   0.83530   0.73543   1.000
    H76     H    0.32161   0.67029   0.03522   1.000
    H77     H    0.82161   0.67030   0.03522   1.000
    H78     H    0.35152   0.76770   0.96359   1.000
    H79     H    0.85153   0.76770   0.96359   1.000
    H80     H    0.49111   0.63133   0.86471   1.000
    H81     H    0.99111   0.63133   0.86471   1.000
    H82     H    0.45671   0.54067   0.94022   1.000
    H83     H    0.95671   0.54067   0.94022   1.000
    H84     H    0.02574   0.65632   0.05181   1.000
    H85     H    0.52574   0.65632   0.05181   1.000
    H86     H    0.49837   0.74790   0.12755   1.000
    H87     H    0.99837   0.74789   0.12756   1.000
    H88     H    0.25516   0.64413   0.12457   1.000
    H89     H    0.75516   0.64414   0.12457   1.000
    H90     H    0.20397   0.00576   0.34855   1.000
    H91     H    0.70398   0.00577   0.34855   1.000
    C92     C    0.78128   0.15370   0.71304   1.000
    C93     C    0.22527   0.17493   0.67350   1.000
    C94     C    0.72527   0.17493   0.67350   1.000
    C95     C    0.19740   0.12931   0.62896   1.000
    H96     H    0.14787   0.93049   0.26544   1.000
    H97     H    0.64787   0.93050   0.26545   1.000
    H98     H    0.29772   0.77478   0.32270   1.000
    H99     H    0.79772   0.77478   0.32270   1.000
    H100    H    0.34712   0.85616   0.40191   1.000
    H101    H    0.84713   0.85617   0.40191   1.000
    H102    H    0.06790   0.52844   0.18864   1.000
    H103    H    0.56791   0.52845   0.18862   1.000
    H104    H    0.15657   0.57961   0.27070   1.000
    H105    H    0.65657   0.57962   0.27069   1.000
    H106    H    0.39371   0.66465   0.23543   1.000
    H107    H    0.89371   0.66465   0.23544   1.000
    H108    H    0.17832   0.82963   0.53520   1.000
    H109    H    0.67834   0.82964   0.53526   1.000
    H110    H    0.14841   0.73222   0.46364   1.000
    H111    H    0.64843   0.73223   0.46363   1.000
    H112    H    0.00893   0.86863   0.36469   1.000
    H113    H    0.50892   0.86863   0.36470   1.000
    H114    H    0.04333   0.95929   0.44020   1.000
    H115    H    0.54332   0.95929   0.44022   1.000
    C116    C    0.14121   0.14575   0.41707   1.000
    C117    C    0.64121   0.14576   0.41707   1.000
    C118    C    0.06975   0.17537   0.41601   1.000
    C119    C    0.56975   0.17538   0.41601   1.000
    C120    C    0.05451   0.22647   0.37427   1.000
    C121    C    0.55451   0.22648   0.37427   1.000
    C122    C    0.22525   0.67491   0.82647   1.000
    C123    C    0.72525   0.67491   0.82647   1.000
    C124    C    0.19738   0.62930   0.87101   1.000
    C125    C    0.69738   0.62930   0.87101   1.000
    C126    C    0.11356   0.24835   0.33467   1.000
    C127    C    0.61356   0.24836   0.33467   1.000
    C128    C    0.18504   0.21975   0.33625   1.000
    C129    C    0.68504   0.21975   0.33625   1.000
    C130    C    0.20014   0.16768   0.37630   1.000
    C131    C    0.70014   0.16768   0.37630   1.000
    C132    C    0.23625   0.25349   0.28990   1.000
    C133    C    0.73625   0.25350   0.28990   1.000
    C134    C    0.11488   0.30031   0.28575   1.000
    C135    C    0.61488   0.30031   0.28575   1.000
    C136    C    0.22276   0.45405   0.15912   1.000
    C137    C    0.72276   0.45406   0.15912   1.000
    C138    C    0.19199   0.41230   0.20535   1.000
    C139    C    0.69199   0.41230   0.20535   1.000
    C140    C    0.21874   0.34628   0.21300   1.000
    C141    C    0.71874   0.34628   0.21300   1.000
    C142    C    0.27476   0.32505   0.17352   1.000
    C143    C    0.77476   0.32506   0.17352   1.000
    C144    C    0.30263   0.37067   0.12898   1.000
    C145    C    0.80263   0.37067   0.12898   1.000
    C146    C    0.47706   0.09320   0.29219   1.000
    C147    C    0.97706   0.09320   0.29219   1.000
    C148    C    0.05024   0.06907   0.28187   1.000
    C149    C    0.55025   0.06908   0.28187   1.000
    C150    C    0.09913   0.09709   0.23666   1.000
    C151    C    0.59914   0.09709   0.23666   1.000
    C152    C    0.07220   0.14946   0.20166   1.000
    C153    C    0.57221   0.14947   0.20166   1.000
    C154    C    0.49858   0.17248   0.21061   1.000
    C155    C    0.99858   0.17248   0.21061   1.000
    C156    C    0.44984   0.14528   0.25576   1.000
    C157    C    0.94984   0.14528   0.25570   1.000
    C158    C    0.11212   0.19053   0.15315   1.000
    C159    C    0.61212   0.19053   0.15315   1.000
    C160    C    0.48728   0.22834   0.16677   1.000
    C161    C    0.98728   0.22834   0.16670   1.000
    C162    C    0.14090   0.33590   0.00000   1.000
    C163    C    0.64090   0.33590   0.00000   1.000
    C164    C    0.12388   0.28159   0.04285   1.000
    C165    C    0.62388   0.28159   0.04285   1.000
    C166    C    0.07591   0.29243   0.09193   1.000
    C167    C    0.57591   0.29243   0.09193   1.000
    C168    C    0.04607   0.35727   0.09807   1.000
    C169    C    0.54607   0.35727   0.09807   1.000
    C170    C    0.06582   0.40854   0.05576   1.000
    C171    C    0.56582   0.40853   0.05576   1.000
    C172    C    0.35882   0.35423   0.91706   1.000
    C173    C    0.85882   0.35423   0.91706   1.000
    C174    C    0.43029   0.32462   0.91599   1.000
    C175    C    0.93029   0.32462   0.91599   1.000
    C176    C    0.44552   0.27353   0.87420   1.000
    C177    C    0.94552   0.27353   0.87426   1.000
    C178    C    0.38647   0.25164   0.83466   1.000
    C179    C    0.88647   0.25164   0.83466   1.000
    C180    C    0.31498   0.28024   0.83624   1.000
    C181    C    0.81498   0.28024   0.83624   1.000
    C182    C    0.29988   0.33231   0.87629   1.000
    C183    C    0.79988   0.33231   0.87629   1.000
    C184    C    0.26377   0.24649   0.78989   1.000
    C185    C    0.76377   0.24649   0.78989   1.000
    C186    C    0.38514   0.19968   0.78575   1.000
    C187    C    0.88515   0.19968   0.78575   1.000
    C188    C    0.27724   0.04591   0.65913   1.000
    C189    C    0.77724   0.04591   0.65913   1.000
    C190    C    0.30801   0.08767   0.70537   1.000
    C191    C    0.80801   0.08767   0.70530   1.000
    C192    C    0.28127   0.15370   0.71304   1.000
    O193    O    0.93686   0.16558   0.76840   1.000
    O194    O    0.19653   0.25506   0.77866   1.000
    O195    O    0.69653   0.25506   0.77866   1.000
    O196    O    0.06994   0.24133   0.65639   1.000
    C197    C    0.69740   0.12931   0.62897   1.000
    C198    C    0.02296   0.40679   0.79218   1.000
    C199    C    0.52297   0.40679   0.79218   1.000
    C200    C    0.44979   0.43093   0.78184   1.000
    C201    C    0.94979   0.43093   0.78184   1.000
    C202    C    0.40090   0.40291   0.73662   1.000
    C203    C    0.90089   0.40291   0.73663   1.000
    C204    C    0.42782   0.35053   0.70164   1.000
    C205    C    0.92782   0.35053   0.70164   1.000
    C206    C    0.00144   0.32750   0.71060   1.000
    C207    C    0.50144   0.32750   0.71060   1.000
    C208    C    0.05018   0.35470   0.75576   1.000
    C209    C    0.55018   0.35470   0.75576   1.000
    C210    C    0.38790   0.30946   0.65313   1.000
    C211    C    0.88790   0.30946   0.65313   1.000
    C212    C    0.01273   0.27163   0.66676   1.000
    C213    C    0.51274   0.27163   0.66676   1.000
    C214    C    0.35915   0.16409   0.50307   1.000
    C215    C    0.85915   0.16409   0.50307   1.000
    C216    C    0.37616   0.21840   0.54283   1.000
    C217    C    0.87616   0.21840   0.54283   1.000
    C218    C    0.42411   0.20755   0.59192   1.000
    C219    C    0.92411   0.20755   0.59190   1.000
    C220    C    0.45392   0.14270   0.59807   1.000
    C221    C    0.95392   0.14271   0.59807   1.000
    C222    C    0.43417   0.09144   0.55576   1.000
    C223    C    0.93418   0.09144   0.55576   1.000
    C224    C    0.35880   0.85421   0.58291   1.000
    C225    C    0.85880   0.85421   0.58291   1.000
    C226    C    0.43026   0.82459   0.58398   1.000
    C227    C    0.93027   0.82459   0.58398   1.000
    C228    C    0.44550   0.77349   0.62571   1.000
    C229    C    0.94550   0.77349   0.62571   1.000
    C230    C    0.38645   0.75161   0.66531   1.000
    C231    C    0.88645   0.75161   0.66531   1.000
    C232    C    0.31497   0.78021   0.66374   1.000
    C233    C    0.81497   0.78021   0.66374   1.000
    C234    C    0.29987   0.83228   0.62369   1.000
    C235    C    0.79987   0.83228   0.62369   1.000
    C236    C    0.26376   0.74647   0.71000   1.000
    C237    C    0.76376   0.74647   0.71008   1.000
    C238    C    0.38513   0.69965   0.71423   1.000
    C239    C    0.88513   0.69965   0.71423   1.000
    C240    C    0.27724   0.54591   0.84080   1.000
    C241    C    0.77724   0.54591   0.84080   1.000
    C242    C    0.30801   0.58766   0.79463   1.000
    C243    C    0.80801   0.58766   0.79463   1.000
    C244    C    0.28126   0.65369   0.78694   1.000
    C245    C    0.78127   0.65369   0.78694   1.000
    C246    C    0.02295   0.90677   0.70779   1.000
    C247    C    0.52295   0.90677   0.70779   1.000
    C248    C    0.44976   0.93090   0.71812   1.000
    C249    C    0.94976   0.93090   0.71812   1.000
    C250    C    0.40087   0.90288   0.76333   1.000
    C251    C    0.90087   0.90288   0.76333   1.000
    C252    C    0.42780   0.85050   0.79832   1.000
    C253    C    0.92780   0.85050   0.79832   1.000
    C254    C    0.00143   0.82748   0.78937   1.000
    C255    C    0.50143   0.82748   0.78937   1.000
    C256    C    0.05016   0.85468   0.74422   1.000
    C257    C    0.55016   0.85468   0.74422   1.000
    C258    C    0.38789   0.80944   0.84680   1.000
    C259    C    0.88789   0.80944   0.84684   1.000
    C260    C    0.01273   0.77162   0.83320   1.000
    C261    C    0.51273   0.77162   0.83322   1.000
    C262    C    0.35911   0.66407   0.99689   1.000
    C263    C    0.85911   0.66407   0.99689   1.000
    C264    C    0.37613   0.71838   0.95713   1.000
    C265    C    0.87613   0.71838   0.95713   1.000
    C266    C    0.42410   0.70754   0.90806   1.000
    C267    C    0.92410   0.70754   0.90806   1.000
    C268    C    0.45393   0.64270   0.90192   1.000
    C269    C    0.95393   0.64270   0.90192   1.000
    C270    C    0.43418   0.59143   0.94422   1.000
    C271    C    0.93419   0.59143   0.94422   1.000
    C272    C    0.14118   0.64572   0.08290   1.000
    C273    C    0.64119   0.64573   0.08292   1.000
    C274    C    0.06972   0.67533   0.08400   1.000
    C275    C    0.56972   0.67534   0.08399   1.000
    C276    C    0.05448   0.72642   0.12573   1.000
    C277    C    0.55448   0.72643   0.12573   1.000
    C278    C    0.11354   0.74831   0.16533   1.000
    C279    C    0.61354   0.74832   0.16533   1.000
    C280    C    0.18502   0.71972   0.16375   1.000
    C281    C    0.68502   0.71972   0.16375   1.000
    C282    C    0.20013   0.66765   0.12370   1.000
    C283    C    0.70013   0.66766   0.12370   1.000
    C284    C    0.23624   0.75347   0.21009   1.000
    C285    C    0.73623   0.75347   0.21009   1.000
    C286    C    0.11485   0.80027   0.21424   1.000
    C287    C    0.61486   0.80028   0.21424   1.000
    C288    C    0.22277   0.95405   0.34085   1.000
    C289    C    0.72277   0.95405   0.34085   1.000
    C290    C    0.19200   0.91229   0.29462   1.000
    C291    C    0.69200   0.91230   0.29462   1.000
    C292    C    0.21873   0.84626   0.28695   1.000
    C293    C    0.71873   0.84626   0.28694   1.000
    C294    C    0.27473   0.82503   0.32649   1.000
    C295    C    0.77473   0.82503   0.32649   1.000
    C296    C    0.30259   0.87065   0.37100   1.000
    C297    C    0.80260   0.87065   0.37102   1.000
    C298    C    0.47704   0.59318   0.20781   1.000
    C299    C    0.97703   0.59317   0.20781   1.000
    C300    C    0.05021   0.56903   0.21815   1.000
    C301    C    0.55022   0.56904   0.21815   1.000
    C302    C    0.09910   0.59704   0.26337   1.000
    C303    C    0.59911   0.59706   0.26330   1.000
    C304    C    0.07218   0.64943   0.29835   1.000
    C305    C    0.57218   0.64944   0.29834   1.000
    C306    C    0.49856   0.67247   0.28939   1.000
    C307    C    0.99856   0.67246   0.28939   1.000
    C308    C    0.44982   0.64526   0.24423   1.000
    C309    C    0.94982   0.64526   0.24423   1.000
    C310    C    0.11210   0.69051   0.34685   1.000
    C311    C    0.61210   0.69050   0.34686   1.000
    C312    C    0.48727   0.72834   0.33322   1.000
    C313    C    0.98726   0.72833   0.33323   1.000
    C314    C    0.14084   0.83587   0.49692   1.000
    C315    C    0.64085   0.83587   0.49691   1.000
    C316    C    0.12383   0.78156   0.45717   1.000
    C317    C    0.62384   0.78156   0.45716   1.000
    C318    C    0.07589   0.79241   0.40807   1.000
    C319    C    0.57589   0.79241   0.40807   1.000
    C320    C    0.04608   0.85726   0.40192   1.000
    C321    C    0.54608   0.85726   0.40192   1.000
    C322    C    0.06583   0.90852   0.44420   1.000
    C323    C    0.56583   0.90852   0.44423   1.000
    N324    N    0.27741   0.43421   0.12140   1.000
    N325    N    0.77741   0.43421   0.12140   1.000
    N326    N    0.19076   0.30194   0.26003   1.000
    N327    N    0.69076   0.30195   0.26003   1.000
    N328    N    0.05929   0.23943   0.13470   1.000
    N329    N    0.55929   0.23943   0.13470   1.000
    N330    N    0.11304   0.39869   0.00913   1.000
    N331    N    0.61304   0.39869   0.00913   1.000
    N332    N    0.22260   0.06577   0.62140   1.000
    N333    N    0.72261   0.06577   0.62140   1.000
    N334    N    0.30926   0.19804   0.76003   1.000
    N335    N    0.80926   0.19804   0.76003   1.000
    N336    N    0.44072   0.26055   0.63469   1.000
    N337    N    0.94072   0.26055   0.63469   1.000
    N338    N    0.38697   0.10129   0.50911   1.000
    N339    N    0.88698   0.10129   0.50911   1.000
    N340    N    0.22260   0.56576   0.87859   1.000
    N341    N    0.72260   0.56576   0.87859   1.000
    N342    N    0.30925   0.69802   0.73995   1.000
    N343    N    0.80925   0.69802   0.73995   1.000
    N344    N    0.44071   0.76054   0.86529   1.000
    N345    N    0.94071   0.76054   0.86529   1.000
    N346    N    0.38697   0.60128   0.99086   1.000
    N347    N    0.88697   0.60128   0.99086   1.000
    N348    N    0.27740   0.93420   0.37859   1.000
    N349    N    0.77740   0.93420   0.37850   1.000
    N350    N    0.19074   0.80191   0.23996   1.000
    N351    N    0.69075   0.80192   0.23996   1.000
    N352    N    0.05928   0.73941   0.36530   1.000
    N353    N    0.55928   0.73941   0.36530   1.000
    N354    N    0.11302   0.89867   0.49088   1.000
    N355    N    0.61303   0.89867   0.49087   1.000
    O356    O    0.06316   0.33440   0.26841   1.000
    O357    O    0.56316   0.33441   0.26841   1.000
    O358    O    0.30348   0.24491   0.27866   1.000
    O359    O    0.80348   0.24491   0.27866   1.000
    O360    O    0.43007   0.25865   0.15639   1.000
    O361    O    0.93007   0.25866   0.15640   1.000
    O362    O    0.17685   0.18609   0.13270   1.000
    O363    O    0.67686   0.18609   0.13279   1.000
    O364    O    0.43686   0.16558   0.76840   1.000
    O365    O    0.56994   0.24132   0.65639   1.000
    O366    O    0.32316   0.31389   0.63278   1.000
    O367    O    0.82315   0.31389   0.63278   1.000
    O368    O    0.43684   0.66555   0.73157   1.000
    O369    O    0.93685   0.66555   0.73157   1.000
    O370    O    0.19652   0.75506   0.72132   1.000
    O371    O    0.69652   0.75506   0.72132   1.000
    O372    O    0.06993   0.74132   0.84359   1.000
    O373    O    0.56993   0.74131   0.84359   1.000
    O374    O    0.32315   0.81388   0.86720   1.000
    O375    O    0.82315   0.81388   0.86720   1.000
    O376    O    0.06314   0.83437   0.23158   1.000
    O377    O    0.56314   0.83438   0.23158   1.000
    O378    O    0.30347   0.74490   0.22133   1.000
    O379    O    0.80348   0.74490   0.22133   1.000
    O380    O    0.43006   0.75864   0.34360   1.000
    O381    O    0.93006   0.75865   0.34359   1.000
    O382    O    0.17685   0.68608   0.36721   1.000
    O383    O    0.67685   0.68608   0.36720   1.000
loop_
    _geom_bond_atom_site_label_1
    _geom_bond_atom_site_label_2
    _geom_bond_distance
    _geom_bond_site_symmetry_2
    _ccdc_geom_bond_type
    C163   N331      1.35806      .   S
    C163   C165      1.43199      .   S
    C163   H21       1.03476  1_554   S
    C162   N330      1.35804      .   S
    C162   C164      1.43198      .   S
    C162   H20       1.03476  1_554   S
    N331   C171      1.34891      .   S
    N330   C170      1.34890      .   S
    H76    C262      1.08845  1_554   S
    H77    C263      1.08846  1_554   S
    H23    C165      1.08577      .   S
    H22    C164      1.08576      .   S
    C165   C167      1.40328      .   S
    C164   C166      1.40327      .   S
    H84    C274      1.08829      .   S
    H85    C275      1.08817      .   S
    C170   H26       1.08902      .   S
    C170   C168      1.39033      .   S
    C171   H27       1.08904      .   S
    C171   C169      1.39034      .   S
    C272   C274      1.40747      .   S
    C272   C282      1.40666      .   S
    C273   C275      1.40745      .   S
    C273   C283      1.40635      .   S
    C275   C277      1.39957      .   S
    C274   C276      1.39942      .   S
    C167   C169      1.40132      .   S
    C167   N329      1.41186      .   S
    C166   C168      1.40131      .   S
    C166   N328      1.41186      .   S
    C169   H25       1.08480      .   S
    C168   H24       1.08616      .   S
    H12    C144      1.08958      .   S
    H13    C145      1.08958      .   S
    N325   C145      1.34755      .   S
    N325   C137      1.34789      .   S
    N324   C144      1.34757      .   S
    N324   C136      1.34789      .   S
    C282   H88       1.09056      .   S
    C282   C280      1.38787      .   S
    C283   H89       1.09055      .   S
    C283   C281      1.38786      .   S
    C276   H87       1.08945  1_455   S
    C276   C278      1.39060      .   S
    C277   H86       1.08946      .   S
    C277   C279      1.39061      .   S
    C144   C142      1.38812      .   S
    C145   C143      1.38813      .   S
    O362   C158      1.22052      .   S
    O363   C159      1.21981      .   S
    N329   C159      1.43077      .   S
    N329   C160      1.43842      .   S
    N328   C158      1.43077      .   S
    N328   C161      1.43765  1_455   S
    H7     C137      1.08954      .   S
    H6     C136      1.08952      .   S
    C158   C152      1.47932      .   S
    C159   C153      1.47927      .   S
    O360   C160      1.21560      .   S
    O361   C161      1.21528      .   S
    C137   C139      1.38859      .   S
    C136   C138      1.38860      .   S
    C280   C278      1.39865      .   S
    C280   C284      1.47820      .   S
    C281   C279      1.39867      .   S
    C281   C285      1.47816      .   S
    C278   C286      1.48293      .   S
    C279   C287      1.48296      .   S
    C161   C155      1.48380      .   S
    C160   C154      1.48278      .   S
    C143   H11       1.08306      .   S
    C143   C141      1.39907      .   S
    C142   H10       1.08306      .   S
    C142   C140      1.39907      .   S
    H103   C301      1.08873      .   S
    H102   C300      1.08855      .   S
    C153   C154      1.40030      .   S
    C153   C151      1.39061      .   S
    C152   C155      1.40026  1_455   S
    C152   C150      1.39064      .   S
    C139   C141      1.40347      .   S
    C139   H9        1.08610      .   S
    C138   C140      1.40347      .   S
    C138   H8        1.08610      .   S
    C298   C301      1.40652      .   S
    C298   C308      1.40653      .   S
    C299   C300      1.40649  1_655   S
    C299   C309      1.40654      .   S
    C284   O378      1.21631      .   S
    C284   N350      1.43829      .   S
    C285   O379      1.21632      .   S
    C285   N351      1.43832      .   S
    C154   C156      1.38959      .   S
    C155   C157      1.38861      .   S
    C141   N327      1.41482      .   S
    C140   N326      1.41484      .   S
    C287   O377      1.21960      .   S
    C287   N351      1.43226      .   S
    C286   O376      1.21961      .   S
    C286   N350      1.43226      .   S
    C301   C303      1.39634      .   S
    C300   C302      1.39738      .   S
    H17    C151      1.09003      .   S
    H16    C150      1.09002      .   S
    H106   C308      1.08896      .   S
    H107   C309      1.08894      .   S
    C150   C148      1.39726      .   S
    C151   C149      1.39729      .   S
    N351   C293      1.41403      .   S
    N350   C292      1.41421      .   S
    C309   C307      1.38968      .   S
    C308   C306      1.38972      .   S
    C157   H19       1.08921      .   S
    C157   C147      1.40734      .   S
    C156   H18       1.08895      .   S
    C156   C146      1.40656      .   S
    N326   C134      1.43225      .   S
    N326   C132      1.43829      .   S
    N327   C135      1.43225      .   S
    N327   C133      1.43830      .   S
    C303   H105      1.09022      .   S
    C303   C305      1.39123      .   S
    C302   H104      1.09003      .   S
    C302   C304      1.39054      .   S
    H96    C290      1.08616      .   S
    H97    C291      1.08603      .   S
    O356   C134      1.21962      .   S
    O357   C135      1.21961      .   S
    O358   C132      1.21628      .   S
    O359   C133      1.21627      .   S
    C149   C146      1.40649      .   S
    C149   H15       1.08869      .   S
    C148   C147      1.40649  1_455   S
    C148   H14       1.08859      .   S
    C134   C126      1.48300      .   S
    C135   C127      1.48303      .   S
    C293   C291      1.40359      .   S
    C293   C295      1.39982      .   S
    C292   C290      1.40356      .   S
    C292   C294      1.39967      .   S
    C307   C304      1.40027  1_655   S
    C307   C313      1.48288      .   S
    C306   C305      1.40028      .   S
    C306   C312      1.48279      .   S
    C133   C129      1.47828      .   S
    C132   C128      1.47829      .   S
    C290   C288      1.38864      .   S
    C291   C289      1.38862      .   S
    C305   C311      1.47937      .   S
    C304   C310      1.47923      .   S
    H99    C295      1.08306      .   S
    H98    C294      1.08306      .   S
    C295   C297      1.38798      .   S
    C294   C296      1.38768      .   S
    C312   O380      1.21556      .   S
    C312   N353      1.43840      .   S
    C313   O381      1.21553      .   S
    C313   N352      1.43836  1_655   S
    C126   C128      1.39866      .   S
    C126   C120      1.39055      .   S
    C127   C129      1.39865      .   S
    C127   C121      1.39056      .   S
    C128   C130      1.38792      .   S
    C129   C131      1.38792      .   S
    C288   H90       1.08992  1_565   S
    C288   N348      1.34793      .   S
    C289   H91       1.08992  1_565   S
    C289   N349      1.34669      .   S
    C310   N352      1.43078      .   S
    C310   O382      1.21989      .   S
    C311   N353      1.43075      .   S
    C311   O383      1.21982      .   S
    H112   C320      1.08627      .   S
    H113   C321      1.08614      .   S
    N352   C318      1.41186      .   S
    N353   C319      1.41185      .   S
    C296   N348      1.34766      .   S
    C296   H100      1.08995      .   S
    C297   N349      1.34734      .   S
    C297   H101      1.08967      .   S
    H3     C120      1.08944  1_655   S
    H2     C121      1.08946      .   S
    C120   C118      1.39962      .   S
    C121   C119      1.39961      .   S
    H4     C130      1.09056      .   S
    H5     C131      1.09056      .   S
    C130   C116      1.40620      .   S
    C131   C117      1.40618      .   S
    C320   C318      1.40128      .   S
    C320   C322      1.38984      .   S
    C321   C319      1.40129      .   S
    C321   C323      1.39032      .   S
    C319   C317      1.40317      .   S
    C318   C316      1.40328      .   S
    C118   C116      1.40745      .   S
    C118   H0        1.08811      .   S
    C119   C117      1.40746      .   S
    C119   H1        1.08813      .   S
    H114   C322      1.08901      .   S
    H115   C323      1.08902      .   S
    C322   N354      1.34947      .   S
    C323   N355      1.34883      .   S
    C317   H111      1.08578      .   S
    C317   C315      1.38648      .   S
    C316   H110      1.08578      .   S
    C316   C314      1.38648      .   S
    H49    C215      1.08843      .   S
    H48    C214      1.08842      .   S
    N355   C315      1.34929      .   S
    N354   C314      1.34927      .   S
    C315   H109      1.08859      .   S
    C314   H108      1.08731      .   S
    C214   N338      1.34929      .   S
    C214   C216      1.38662      .   S
    C215   N339      1.34929      .   S
    C215   C217      1.38662      .   S
    N339   C223      1.34902      .   S
    N338   C222      1.34901      .   S
    H51    C217      1.08578      .   S
    H50    C216      1.08579      .   S
    C216   C218      1.40318      .   S
    C217   C219      1.40283      .   S
    H57    C227      1.08826      .   S
    H56    C226      1.08827      .   S
    C223   H55       1.08903      .   S
    C223   C221      1.39030      .   S
    C222   H54       1.08905      .   S
    C222   C220      1.39030      .   S
    C224   C226      1.40746      .   S
    C224   C234      1.40632      .   S
    C225   C227      1.40747      .   S
    C225   C235      1.40633      .   S
    C226   C228      1.39947      .   S
    C227   C229      1.39947      .   S
    C219   C221      1.40134      .   S
    C219   N337      1.41217      .   S
    C218   C220      1.40128      .   S
    C218   N336      1.41186      .   S
    C220   H52       1.08614      .   S
    C221   H53       1.08616      .   S
    H41    C197      1.08973      .   S
    H40    C95       1.08956      .   S
    N332   C95       1.34754      .   S
    N332   C188      1.34783      .   S
    N333   C197      1.34756      .   S
    N333   C189      1.34785      .   S
    C235   H61       1.09056      .   S
    C235   C233      1.38792      .   S
    C234   H60       1.09053      .   S
    C234   C232      1.38791      .   S
    C229   H58       1.08945  1_655   S
    C229   C231      1.39055      .   S
    C228   H59       1.08945      .   S
    C228   C230      1.39055      .   S
    C95    C93       1.38813      .   S
    C197   C94       1.38797      .   S
    O366   C210      1.21978      .   S
    O367   C211      1.21983      .   S
    N337   C211      1.43073      .   S
    N337   C212      1.43833  1_655   S
    N336   C210      1.43075      .   S
    N336   C213      1.43837      .   S
    H34    C188      1.09002  1_565   S
    H35    C189      1.08995  1_565   S
    C210   C204      1.47934      .   S
    C211   C205      1.47929      .   S
    O196   C212      1.21554      .   S
    O365   C213      1.21557      .   S
    C189   C191      1.38760      .   S
    C188   C190      1.38877      .   S
    C233   C231      1.39866      .   S
    C233   C237      1.47813      .   S
    C232   C230      1.39866      .   S
    C232   C236      1.47686      .   S
    C231   C239      1.48305      .   S
    C230   C238      1.48308      .   S
    C213   C207      1.48286      .   S
    C212   C206      1.48289      .   S
    C93    H38       1.08257      .   S
    C93    C192      1.39972      .   S
    C94    H39       1.08307      .   S
    C94    C92       1.39973      .   S
    H71    C249      1.08870      .   S
    H70    C248      1.08872      .   S
    C204   C207      1.40030      .   S
    C204   C202      1.39053      .   S
    C205   C206      1.40028  1_655   S
    C205   C203      1.39063      .   S
    C191   C92       1.40375      .   S
    C191   H37       1.08688      .   S
    C190   C192      1.40357      .   S
    C190   H36       1.08552      .   S
    C247   C248      1.40652      .   S
    C247   C257      1.40659      .   S
    C246   C249      1.40650  1_455   S
    C246   C256      1.40659      .   S
    C236   O370      1.21668      .   S
    C236   N342      1.43914      .   S
    C237   O371      1.21628      .   S
    C237   N343      1.43829      .   S
    C207   C209      1.38971      .   S
    C206   C208      1.38971      .   S
    C192   N334      1.41419      .   S
    C92    N335      1.41418      .   S
    C239   O369      1.21964      .   S
    C239   N343      1.43226      .   S
    C238   O368      1.21961      .   S
    C238   N342      1.43224      .   S
    C248   C250      1.39728      .   S
    C249   C251      1.39730      .   S
    H44    C202      1.09001      .   S
    H45    C203      1.09002      .   S
    H75    C257      1.08896      .   S
    H74    C256      1.08895      .   S
    C202   C200      1.39742      .   S
    C203   C201      1.39728      .   S
    N342   C244      1.41415      .   S
    N343   C245      1.41416      .   S
    C257   C255      1.38959      .   S
    C256   C254      1.38959      .   S
    C209   H47       1.08892      .   S
    C209   C199      1.40657      .   S
    C208   H46       1.08892      .   S
    C208   C198      1.40653      .   S
    N334   C186      1.43225      .   S
    N334   C184      1.43823      .   S
    N335   C187      1.43226      .   S
    N335   C185      1.43821      .   S
    C251   H73       1.09001      .   S
    C251   C253      1.39051      .   S
    C250   H72       1.09003      .   S
    C250   C252      1.39052      .   S
    H65    C243      1.08702      .   S
    H64    C242      1.08702      .   S
    O364   C186      1.21967      .   S
    O193   C187      1.21969      .   S
    O195   C185      1.21626      .   S
    O194   C184      1.21628      .   S
    C201   C198      1.40651  1_655   S
    C201   H43       1.08864      .   S
    C200   C199      1.40652      .   S
    C200   H42       1.08853      .   S
    C186   C178      1.48300      .   S
    C187   C179      1.48296      .   S
    C244   C242      1.40357      .   S
    C244   C122      1.39975      .   S
    C245   C243      1.40356      .   S
    C245   C123      1.39975      .   S
    C255   C252      1.40030      .   S
    C255   C261      1.48293      .   S
    C254   C253      1.40027  1_455   S
    C254   C260      1.48265      .   S
    C185   C181      1.47832      .   S
    C184   C180      1.47830      .   S
    C242   C240      1.38758      .   S
    C243   C241      1.38759      .   S
    C252   C258      1.47877      .   S
    C253   C259      1.47941      .   S
    H66    C122      1.08317      .   S
    H67    C123      1.08319      .   S
    C123   C125      1.38811      .   S
    C122   C124      1.38810      .   S
    C260   O372      1.21564      .   S
    C260   N345      1.43860  1_455   S
    C261   O373      1.21556      .   S
    C261   N344      1.43841      .   S
    C179   C181      1.39867      .   S
    C179   C177      1.39059      .   S
    C178   C180      1.39867      .   S
    C178   C176      1.38975      .   S
    C181   C183      1.38789      .   S
    C180   C182      1.38788      .   S
    C240   H62       1.08979      .   S
    C240   N340      1.34885      .   S
    C241   H63       1.08944      .   S
    C241   N341      1.34886      .   S
    C258   N344      1.43105      .   S
    C258   O374      1.22016      .   S
    C259   N345      1.43079      .   S
    C259   O375      1.21984      .   S
    H80    C268      1.08615      .   S
    H81    C269      1.08615      .   S
    N345   C267      1.41186      .   S
    N344   C266      1.41186      .   S
    C125   N341      1.34756      .   S
    C125   H69       1.08956      .   S
    C124   N340      1.34756      .   S
    C124   H68       1.08956      .   S
    H30    C177      1.08946  1_455   S
    H31    C176      1.08941      .   S
    C176   C174      1.40031      .   S
    C177   C175      1.39943      .   S
    H33    C183      1.09056      .   S
    H32    C182      1.09056      .   S
    C183   C173      1.40621      .   S
    C182   C172      1.40622      .   S
    C269   C267      1.40130      .   S
    C269   C271      1.39018      .   S
    C268   C266      1.40130      .   S
    C268   C270      1.39018      .   S
    C266   C264      1.40307      .   S
    C267   C265      1.40306      .   S
    C175   C173      1.40746      .   S
    C175   H29       1.08830      .   S
    C174   C172      1.40746      .   S
    C174   H28       1.08714      .   S
    H82    C270      1.08901      .   S
    H83    C271      1.08901      .   S
    C271   N347      1.34904      .   S
    C270   N346      1.34906      .   S
    C264   H78       1.08577      .   S
    C264   C262      1.38667      .   S
    C265   H79       1.08579      .   S
    C265   C263      1.38667      .   S
    N347   C263      1.34936      .   S
    N346   C262      1.34935      .   S
