# CIF file generated by openbabel 2.4.90, see http://openbabel.sf.net
data_I
_chemical_name_common ''
_cell_length_a 17.315
_cell_length_b 19.3
_cell_length_c 22.368
_cell_angle_alpha 90
_cell_angle_beta 90.002
_cell_angle_gamma 94.969
_space_group_name_H-M_alt 'P 1'
_space_group_name_Hall 'P 1'
loop_
    _symmetry_equiv_pos_as_xyz
    x,y,z
loop_
    _atom_site_label
    _atom_site_type_symbol
    _atom_site_fract_x
    _atom_site_fract_y
    _atom_site_fract_z
    _atom_site_occupancy
    C0      C    0.15405   0.08972   0.46211   1.000
    C1      C    0.65405   0.08972   0.46211   1.000
    C2      C    0.07025   0.93509   0.65503   1.000
    C3      C    0.42976   0.06488   0.34496   1.000
    C4      C    0.92976   0.06488   0.34496   1.000
    C5      C    0.34597   0.41026   0.96210   1.000
    C6      C    0.84597   0.41026   0.96210   1.000
    C7      C    0.07026   0.43511   0.84495   1.000
    C8      C    0.57026   0.43511   0.84495   1.000
    C9      C    0.34596   0.91024   0.53788   1.000
    C10     C    0.84596   0.91024   0.53788   1.000
    C11     C    0.57025   0.93509   0.65503   1.000
    C12     C    0.15403   0.58970   0.03788   1.000
    C13     C    0.65403   0.58970   0.03788   1.000
    C14     C    0.42974   0.56485   0.15504   1.000
    C15     C    0.92974   0.56486   0.15500   1.000
