# CIF file generated by openbabel 2.4.90, see http://openbabel.sf.net
data_I
_chemical_name_common ''
_cell_length_a 17.315
_cell_length_b 19.3
_cell_length_c 22.368
_cell_angle_alpha 90
_cell_angle_beta 90.002
_cell_angle_gamma 94.969
_space_group_name_H-M_alt 'P 1'
_space_group_name_Hall 'P 1'
loop_
    _symmetry_equiv_pos_as_xyz
    x,y,z
loop_
    _atom_site_label
    _atom_site_type_symbol
    _atom_site_fract_x
    _atom_site_fract_y
    _atom_site_fract_z
    _atom_site_occupancy
    Zr0     Zr   0.34496   0.01207   0.44376   1.000
    Zr1     Zr   0.84496   0.01207   0.44376   1.000
    Zr2     Zr   0.15505   0.48790   0.94376   1.000
    Zr3     Zr   0.65505   0.48791   0.94376   1.000
    Zr4     Zr   0.15504   0.98789   0.55623   1.000
    Zr5     Zr   0.65504   0.98789   0.55623   1.000
    Zr6     Zr   0.34495   0.51206   0.05623   1.000
    Zr7     Zr   0.84495   0.51206   0.05623   1.000
    Zr8     Zr   0.15405   0.08972   0.46211   1.000
    Zr9     Zr   0.65405   0.08972   0.46211   1.000
    Zr10    Zr   0.42976   0.06488   0.34496   1.000
    Zr11    Zr   0.92976   0.06488   0.34496   1.000
    Zr12    Zr   0.34597   0.41026   0.96210   1.000
    Zr13    Zr   0.84597   0.41026   0.96210   1.000
    Zr14    Zr   0.07026   0.43511   0.84495   1.000
    Zr15    Zr   0.57026   0.43511   0.84495   1.000
    Zr16    Zr   0.34596   0.91024   0.53788   1.000
    Zr17    Zr   0.84596   0.91024   0.53788   1.000
    Zr18    Zr   0.07025   0.93509   0.65503   1.000
    Zr19    Zr   0.57025   0.93509   0.65503   1.000
    Zr20    Zr   0.15403   0.58970   0.03788   1.000
    Zr21    Zr   0.65403   0.58970   0.03788   1.000
    Zr22    Zr   0.42974   0.56485   0.15504   1.000
    Zr23    Zr   0.92974   0.56486   0.15500   1.000
    Zr24    Zr   0.21435   0.05695   0.45788   1.000
    Zr25    Zr   0.71435   0.05695   0.45788   1.000
    Zr26    Zr   0.10286   0.07779   0.50259   1.000
    Zr27    Zr   0.60286   0.07779   0.50259   1.000
    Zr28    Zr   0.36683   0.09158   0.35694   1.000
    Zr29    Zr   0.86682   0.09158   0.35690   1.000
    Zr30    Zr   0.45630   0.01657   0.37550   1.000
    Zr31    Zr   0.95630   0.01657   0.37550   1.000
    Zr32    Zr   0.28566   0.44302   0.95788   1.000
    Zr33    Zr   0.78566   0.44302   0.95788   1.000
    Zr34    Zr   0.39715   0.42220   0.00259   1.000
    Zr35    Zr   0.89715   0.42220   0.00259   1.000
    Zr36    Zr   0.13318   0.40840   0.85694   1.000
    Zr37    Zr   0.63319   0.40840   0.85690   1.000
    Zr38    Zr   0.04371   0.48341   0.87549   1.000
    Zr39    Zr   0.54371   0.48341   0.87549   1.000
    Zr40    Zr   0.28565   0.94300   0.54210   1.000
    Zr41    Zr   0.78565   0.94300   0.54210   1.000
    Zr42    Zr   0.39714   0.92218   0.49740   1.000
    Zr43    Zr   0.89715   0.92218   0.49740   1.000
    Zr44    Zr   0.13318   0.90839   0.64305   1.000
    Zr45    Zr   0.63318   0.90839   0.64305   1.000
    Zr46    Zr   0.04370   0.98339   0.62440   1.000
    Zr47    Zr   0.54370   0.98339   0.62440   1.000
    Zr48    Zr   0.21434   0.55694   0.04210   1.000
    Zr49    Zr   0.71434   0.55695   0.04210   1.000
    Zr50    Zr   0.10286   0.57777   0.99739   1.000
    Zr51    Zr   0.60286   0.57777   0.99739   1.000
    Zr52    Zr   0.36682   0.59157   0.14304   1.000
    Zr53    Zr   0.86682   0.59157   0.14305   1.000
    Zr54    Zr   0.45630   0.51657   0.12449   1.000
    Zr55    Zr   0.95629   0.51656   0.12449   1.000
    O56     O    0.37105   0.46713   0.02941   1.000
    O57     O    0.37156   0.41623   0.98235   1.000
    O58     O    0.87105   0.46713   0.02941   1.000
    O59     O    0.87156   0.41623   0.98235   1.000
    O60     O    0.18418   0.57332   0.03999   1.000
    O61     O    0.12844   0.58373   0.01763   1.000
    O62     O    0.68419   0.57332   0.03999   1.000
    O63     O    0.62844   0.58374   0.01763   1.000
    O64     O    0.77965   0.53450   0.04917   1.000
    O65     O    0.27964   0.53450   0.04917   1.000
    O66     O    0.40062   0.51431   0.09036   1.000
    O67     O    0.35589   0.55182   0.09964   1.000
    O68     O    0.90062   0.51431   0.09036   1.000
    O69     O    0.85589   0.55182   0.09964   1.000
    O70     O    0.44302   0.54071   0.13977   1.000
    O71     O    0.94302   0.54071   0.13975   1.000
    O72     O    0.39828   0.57821   0.14904   1.000
    O73     O    0.89828   0.57821   0.14903   1.000
    O74     O    0.89829   0.07823   0.35093   1.000
    O75     O    0.94303   0.04073   0.36023   1.000
    O76     O    0.39829   0.07823   0.35095   1.000
    O77     O    0.44303   0.04072   0.36023   1.000
    O78     O    0.85589   0.05183   0.40033   1.000
    O79     O    0.35589   0.05183   0.40035   1.000
    O80     O    0.90063   0.01432   0.40963   1.000
    O81     O    0.40063   0.01432   0.40963   1.000
    O82     O    0.77966   0.03451   0.45082   1.000
    O83     O    0.87105   0.96713   0.47058   1.000
    O84     O    0.27965   0.03451   0.45082   1.000
    O85     O    0.37105   0.96712   0.47058   1.000
    O86     O    0.68420   0.07334   0.45999   1.000
    O87     O    0.18420   0.07333   0.45999   1.000
    O88     O    0.12845   0.08375   0.48235   1.000
    O89     O    0.62846   0.08375   0.48235   1.000
    O90     O    0.87155   0.91621   0.51764   1.000
    O91     O    0.37155   0.91621   0.51764   1.000
    O92     O    0.62895   0.03284   0.52941   1.000
    O93     O    0.12895   0.03284   0.52941   1.000
    O94     O    0.31580   0.92662   0.53999   1.000
    O95     O    0.81580   0.92662   0.53999   1.000
    O96     O    0.72035   0.96545   0.54917   1.000
    O97     O    0.22035   0.96545   0.54917   1.000
    O98     O    0.59937   0.98564   0.59031   1.000
    O99     O    0.64411   0.94814   0.59964   1.000
    O100    O    0.09937   0.98564   0.59031   1.000
    O101    O    0.14411   0.94814   0.59964   1.000
    O102    O    0.55697   0.95924   0.63972   1.000
    O103    O    0.05697   0.95924   0.63972   1.000
    O104    O    0.10171   0.92174   0.64904   1.000
    O105    O    0.60171   0.92174   0.64904   1.000
    O106    O    0.60172   0.42176   0.85093   1.000
    O107    O    0.55698   0.45926   0.86022   1.000
    O108    O    0.10172   0.42176   0.85095   1.000
    O109    O    0.05698   0.45926   0.86022   1.000
    O110    O    0.64412   0.44815   0.90033   1.000
    O111    O    0.14412   0.44815   0.90035   1.000
    O112    O    0.09938   0.48566   0.90962   1.000
    O113    O    0.59938   0.48566   0.90962   1.000
    O114    O    0.72036   0.46546   0.95082   1.000
    O115    O    0.62895   0.53284   0.97058   1.000
    O116    O    0.22036   0.46546   0.95082   1.000
    O117    O    0.12895   0.53284   0.97058   1.000
    O118    O    0.31582   0.42664   0.95999   1.000
    O119    O    0.81582   0.42664   0.95999   1.000
    N120    N    0.31514   0.20512   0.77065   1.000
    O121    O    0.33377   0.29369   0.85511   1.000
    O122    O    0.25198   0.11597   0.67973   1.000
    N123    N    0.06146   0.73192   0.35313   1.000
    O124    O    0.09775   0.83760   0.43834   1.000
    O125    O    0.00743   0.65547   0.26727   1.000
    N126    N    0.68488   0.29487   0.27067   1.000
    O127    O    0.66625   0.20630   0.35513   1.000
    O128    O    0.74803   0.38400   0.17974   1.000
    N129    N    0.31513   0.70510   0.72930   1.000
    O130    O    0.33375   0.79366   0.64485   1.000
    O131    O    0.25198   0.61597   0.82024   1.000
    N132    N    0.81513   0.70510   0.72930   1.000
    O133    O    0.83375   0.79366   0.64485   1.000
    O134    O    0.75198   0.61597   0.82024   1.000
    N135    N    0.93852   0.76802   0.85311   1.000
    O136    O    0.99256   0.84448   0.76726   1.000
    O137    O    0.90224   0.66235   0.93833   1.000
    N138    N    0.18486   0.79484   0.22932   1.000
    O139    O    0.16623   0.70627   0.14485   1.000
    O140    O    0.24802   0.88398   0.32025   1.000
    N141    N    0.43852   0.76802   0.85311   1.000
    O142    O    0.49256   0.84447   0.76726   1.000
    O143    O    0.40224   0.66234   0.93833   1.000
    N144    N    0.81514   0.20512   0.77066   1.000
    O145    O    0.83377   0.29369   0.85512   1.000
    O146    O    0.75198   0.11597   0.67974   1.000
    N147    N    0.06148   0.23195   0.14673   1.000
    O148    O    0.00745   0.15549   0.23265   1.000
    O149    O    0.09776   0.33762   0.06159   1.000
    N150    N    0.93854   0.26804   0.64685   1.000
    O151    O    0.99257   0.34450   0.73271   1.000
    O152    O    0.90225   0.16236   0.56164   1.000
    N153    N    0.56147   0.73193   0.35313   1.000
    O154    O    0.59775   0.83760   0.43834   1.000
    O155    O    0.50743   0.65547   0.26728   1.000
    N156    N    0.56149   0.23195   0.14674   1.000
    O157    O    0.59777   0.33762   0.06159   1.000
    O158    O    0.50745   0.15549   0.23266   1.000
    N159    N    0.18488   0.29486   0.27067   1.000
    O160    O    0.16625   0.20630   0.35513   1.000
    O161    O    0.24803   0.38400   0.17974   1.000
    N162    N    0.43854   0.26804   0.64685   1.000
    O163    O    0.49257   0.34449   0.73271   1.000
    O164    O    0.40225   0.16236   0.56164   1.000
    N165    N    0.68486   0.79484   0.22932   1.000
    O166    O    0.66624   0.70628   0.14486   1.000
    O167    O    0.74802   0.88399   0.32022   1.000
loop_
    _geom_bond_atom_site_label_1
    _geom_bond_atom_site_label_2
    _geom_bond_distance
    _geom_bond_site_symmetry_2
    _ccdc_geom_bond_type
    Zr34   O56       1.17644      .   S
    Zr6    O56       1.17644      .   S
    Zr34   O57       0.63701  1_554   S
    Zr12   O57       0.63701      .   S
    Zr35   O58       1.17644      .   S
    Zr7    O58       1.17644      .   S
    Zr35   O59       0.63702  1_554   S
    Zr13   O59       0.63702      .   S
    Zr20   O60       0.63510      .   S
    Zr48   O60       0.63510      .   S
    Zr20   O61       0.63699      .   S
    Zr50   O61       0.63699  1_556   S
    Zr21   O62       0.63510      .   S
    Zr49   O62       0.63510      .   S
    Zr21   O63       0.63700      .   S
    Zr51   O63       0.63700  1_556   S
    Zr49   O64       1.25540      .   S
    Zr7    O64       1.25540      .   S
    Zr48   O65       1.25539      .   S
    Zr6    O65       1.25539      .   S
    Zr6    O66       1.22744      .   S
    Zr54   O66       1.22744      .   S
    Zr6    O67       1.24179      .   S
    Zr52   O67       1.24179      .   S
    Zr7    O68       1.22740      .   S
    Zr55   O68       1.22740      .   S
    Zr7    O69       1.24182      .   S
    Zr53   O69       1.24182      .   S
    Zr54   O70       0.63661      .   S
    Zr22   O70       0.63661      .   S
    Zr55   O71       0.63642      .   S
    Zr23   O71       0.63642      .   S
    Zr52   O72       0.63683      .   S
    Zr22   O72       0.63683      .   S
    Zr53   O73       0.63673      .   S
    Zr23   O73       0.63673      .   S
    Zr11   O74       0.63673      .   S
    Zr29   O74       0.63673      .   S
    Zr11   O75       0.63662      .   S
    Zr31   O75       0.63662      .   S
    Zr10   O76       0.63682      .   S
    Zr28   O76       0.63682      .   S
    Zr10   O77       0.63660      .   S
    Zr30   O77       0.63660      .   S
    Zr29   O78       1.24220      .   S
    Zr1    O78       1.24220      .   S
    Zr28   O79       1.24187      .   S
    Zr0    O79       1.24187      .   S
    Zr31   O80       1.22744      .   S
    Zr1    O80       1.22744      .   S
    Zr30   O81       1.22745      .   S
    Zr0    O81       1.22745      .   S
    Zr1    O82       1.25540      .   S
    Zr25   O82       1.25540      .   S
    Zr1    O83       1.17659  1_545   S
    Zr43   O83       1.17659      .   S
    Zr0    O84       1.25540      .   S
    Zr24   O84       1.25540      .   S
    Zr0    O85       1.17658  1_545   S
    Zr42   O85       1.17658      .   S
    Zr25   O86       0.63510      .   S
    Zr9    O86       0.63510      .   S
    Zr24   O87       0.63510      .   S
    Zr8    O87       0.63510      .   S
    Zr8    O88       0.63699      .   S
    Zr26   O88       0.63699      .   S
    Zr9    O89       0.63700      .   S
    Zr27   O89       0.63700      .   S
    Zr43   O90       0.63702      .   S
    Zr17   O90       0.63702      .   S
    Zr42   O91       0.63702      .   S
    Zr16   O91       0.63702      .   S
    Zr27   O92       1.17661      .   S
    Zr5    O92       1.17661  1_565   S
    Zr26   O93       1.17661      .   S
    Zr4    O93       1.17661  1_565   S
    Zr16   O94       0.63509      .   S
    Zr40   O94       0.63509      .   S
    Zr17   O95       0.63510      .   S
    Zr41   O95       0.63510      .   S
    Zr41   O96       1.25541      .   S
    Zr5    O96       1.25541      .   S
    Zr40   O97       1.25541      .   S
    Zr4    O97       1.25541      .   S
    Zr5    O98       1.22684      .   S
    Zr47   O98       1.22684      .   S
    Zr5    O99       1.24184      .   S
    Zr45   O99       1.24184      .   S
    Zr4    O100      1.22684      .   S
    Zr46   O100      1.22684      .   S
    Zr4    O101      1.24183      .   S
    Zr44   O101      1.24183      .   S
    Zr47   O102      0.63714      .   S
    Zr19   O102      0.63714      .   S
    Zr46   O103      0.63715      .   S
    Zr18   O103      0.63715      .   S
    Zr44   O104      0.63681      .   S
    Zr18   O104      0.63681      .   S
    Zr45   O105      0.63682      .   S
    Zr19   O105      0.63682      .   S
    Zr15   O106      0.63673      .   S
    Zr37   O106      0.63673      .   S
    Zr15   O107      0.63660      .   S
    Zr39   O107      0.63660      .   S
    Zr14   O108      0.63681      .   S
    Zr36   O108      0.63681      .   S
    Zr14   O109      0.63659      .   S
    Zr38   O109      0.63659      .   S
    Zr37   O110      1.24216      .   S
    Zr3    O110      1.24216      .   S
    Zr36   O111      1.24182      .   S
    Zr2    O111      1.24182      .   S
    Zr38   O112      1.22749      .   S
    Zr2    O112      1.22749      .   S
    Zr39   O113      1.22747      .   S
    Zr3    O113      1.22747      .   S
    Zr3    O114      1.25541      .   S
    Zr33   O114      1.25541      .   S
    Zr3    O115      1.17639      .   S
    Zr51   O115      1.17639      .   S
    Zr2    O116      1.25539      .   S
    Zr32   O116      1.25539      .   S
    Zr2    O117      1.17640      .   S
    Zr50   O117      1.17640      .   S
    Zr32   O118      0.63511      .   S
    Zr12   O118      0.63511      .   S
    Zr33   O119      0.63510      .   S
    Zr13   O119      0.63510      .   S
    N120   O121      2.54948      .   S
    Zr12   O121      3.27896      .   S
    N120   O122      2.82233      .   S
    Zr4    O122      3.97998  1_565   S
    N123   O124      2.82233      .   S
    Zr4    O124      3.98149      .   S
    N123   O125      2.54991      .   S
    Zr23   O125      3.28117  1_655   S
    N126   O127      2.54936      .   S
    Zr9    O127      3.27890      .   S
    N126   O128      2.82243      .   S
    Zr7    O128      3.97990      .   S
    N129   O130      2.54921      .   S
    Zr16   O130      3.27865      .   S
    N129   O131      2.82259      .   S
    Zr2    O131      3.98008      .   S
    N132   O133      2.54923      .   S
    Zr17   O133      3.27868      .   S
    N132   O134      2.82258      .   S
    Zr3    O134      3.98006      .   S
    N135   O136      2.54980      .   S
    Zr18   O136      3.28073  1_455   S
    N135   O137      2.82234      .   S
    Zr7    O137      3.98160  1_554   S
    N138   O139      2.54942      .   S
    Zr20   O139      3.27871      .   S
    N138   O140      2.82256      .   S
    Zr0    O140      3.98021  1_545   S
    N141   O142      2.54980      .   S
    Zr19   O142      3.28073      .   S
    N141   O143      2.82235      .   S
    Zr6    O143      3.98161  1_554   S
    N144   O145      2.54934      .   S
    Zr13   O145      3.27882      .   S
    N144   O146      2.82247      .   S
    Zr5    O146      3.98010  1_565   S
    N147   O148      2.55095      .   S
    Zr11   O148      3.28197  1_655   S
    N147   O149      2.82126      .   S
    Zr2    O149      3.98053  1_556   S
    N150   O151      2.54981      .   S
    Zr14   O151      3.28077  1_455   S
    N150   O152      2.82228      .   S
    Zr1    O152      3.98142      .   S
    N153   O154      2.82229      .   S
    Zr5    O154      3.98151      .   S
    N153   O155      2.54977      .   S
    Zr22   O155      3.28073      .   S
    N156   O157      2.82130      .   S
    Zr3    O157      3.98057  1_556   S
    N156   O158      2.55092      .   S
    Zr10   O158      3.28195      .   S
    N159   O160      2.54936      .   S
    Zr8    O160      3.27889      .   S
    N159   O161      2.82243      .   S
    Zr6    O161      3.97991      .   S
    N162   O163      2.54982      .   S
    Zr15   O163      3.28076      .   S
    N162   O164      2.82229      .   S
    Zr0    O164      3.98142      .   S
    N165   O166      2.54932      .   S
    Zr21   O166      3.27880      .   S
    N165   O167      2.82220      .   S
    Zr1    O167      3.98054  1_545   S
