# CIF file generated by openbabel 2.4.90, see http://openbabel.sf.net
data_I
_chemical_name_common ''
_cell_length_a 19.597
_cell_length_b 14.255
_cell_length_c 14.261
_cell_angle_alpha 102.692
_cell_angle_beta 103.349
_cell_angle_gamma 103.22
_space_group_name_H-M_alt 'P 1'
_space_group_name_Hall 'P 1'
loop_
    _symmetry_equiv_pos_as_xyz
    x,y,z
loop_
    _atom_site_label
    _atom_site_type_symbol
    _atom_site_fract_x
    _atom_site_fract_y
    _atom_site_fract_z
    _atom_site_occupancy
    Lv0     Lv   0.49999   0.49999   0.99991   1.000
    Lv1     Lv   0.37970   0.27613   0.18818   1.000
    Lv2     Lv   0.24999   0.99993   0.49999   1.000
    Lv3     Lv   0.74999   0.99990   0.49998   1.000
    Lv4     Lv   0.87040   0.81198   0.72389   1.000
    Lv5     Lv   0.37040   0.81197   0.72390   1.000
    Lv6     Lv   0.87971   0.27614   0.18818   1.000
    Lv7     Lv   0.62030   0.72388   0.81182   1.000
    Lv8     Lv   0.12030   0.72388   0.81183   1.000
    Lv9     Lv   0.99999   0.49999   0.99992   1.000
    Lv10    Lv   0.62961   0.18804   0.27611   1.000
    Lv11    Lv   0.12961   0.18803   0.27609   1.000
