# CIF file generated by openbabel 2.4.90, see http://openbabel.sf.net
data_I
_chemical_name_common ''
_cell_length_a 19.597
_cell_length_b 14.255
_cell_length_c 14.261
_cell_angle_alpha 102.692
_cell_angle_beta 103.349
_cell_angle_gamma 103.22
_space_group_name_H-M_alt 'P 1'
_space_group_name_Hall 'P 1'
loop_
    _symmetry_equiv_pos_as_xyz
    x,y,z
loop_
    _atom_site_label
    _atom_site_type_symbol
    _atom_site_fract_x
    _atom_site_fract_y
    _atom_site_fract_z
    _atom_site_occupancy
    N0      N    0.49999   0.49999   0.99991   1.000
    N1      N    0.37970   0.27613   0.18818   1.000
    N2      N    0.24999   0.99993   0.49999   1.000
    N3      N    0.74999   0.99990   0.49998   1.000
    N4      N    0.87040   0.81198   0.72389   1.000
    N5      N    0.37040   0.81197   0.72390   1.000
    N6      N    0.87971   0.27614   0.18818   1.000
    N7      N    0.62030   0.72388   0.81182   1.000
    N8      N    0.12030   0.72388   0.81183   1.000
    N9      N    0.99999   0.49999   0.99992   1.000
    N10     N    0.62961   0.18804   0.27611   1.000
    N11     N    0.12961   0.18803   0.27609   1.000
    Zr12    Zr   0.12499   0.21635   0.78359   1.000
    O13     O    0.99826   0.14089   0.68850   1.000
    O14     O    0.11755   0.20577   0.96055   1.000
    O15     O    0.13458   0.20870   0.60125   1.000
    O16     O    0.13244   0.03940   0.79409   1.000
    O17     O    0.11535   0.39873   0.79124   1.000
    O18     O    0.25173   0.31146   0.85906   1.000
    Zr19    Zr   0.87499   0.78365   0.21642   1.000
    O20     O    0.88464   0.60128   0.20878   1.000
    O21     O    0.86755   0.96061   0.20591   1.000
    O22     O    0.00172   0.85906   0.31149   1.000
    O23     O    0.88244   0.79423   0.03946   1.000
    O24     O    0.86541   0.79132   0.39876   1.000
    O25     O    0.74825   0.68854   0.14089   1.000
    Zr26    Zr   0.37498   0.78364   0.21642   1.000
    O27     O    0.36754   0.96060   0.20590   1.000
    O28     O    0.38244   0.79423   0.03945   1.000
    O29     O    0.38464   0.60128   0.20877   1.000
    O30     O    0.24825   0.68853   0.14089   1.000
    O31     O    0.36540   0.79131   0.39876   1.000
    O32     O    0.50172   0.85905   0.31149   1.000
    Zr33    Zr   0.62500   0.21636   0.78358   1.000
    O34     O    0.63458   0.20871   0.60125   1.000
    O35     O    0.61535   0.39873   0.79124   1.000
    O36     O    0.49826   0.14091   0.68850   1.000
    O37     O    0.63244   0.03941   0.79409   1.000
    O38     O    0.75173   0.31146   0.85906   1.000
    O39     O    0.61755   0.20578   0.96055   1.000
loop_
    _geom_bond_atom_site_label_1
    _geom_bond_atom_site_label_2
    _geom_bond_distance
    _geom_bond_site_symmetry_2
    _ccdc_geom_bond_type
    Zr12   O13       2.39705  1_455   S
    N3     O13       4.69592  1_565   S
    Zr12   O14       2.59616      .   S
    N11    O14       4.51730  1_554   S
    Zr12   O15       2.63046      .   S
    N11    O15       4.55808      .   S
    Zr12   O16       2.59446      .   S
    N8     O16       4.51538  1_565   S
    Zr12   O17       2.62975      .   S
    N8     O17       4.55657      .   S
    Zr12   O18       2.39783      .   S
    N0     O18       4.69703      .   S
    Zr19   O20       2.62976      .   S
    N6     O20       4.55651      .   S
    Zr19   O21       2.59446      .   S
    N6     O21       4.51545  1_545   S
    Zr19   O22       2.39694  1_655   S
    N2     O22       4.69579      .   S
    Zr19   O23       2.59627      .   S
    N4     O23       4.51762  1_556   S
    Zr19   O24       2.63033      .   S
    N4     O24       4.55777      .   S
    Zr19   O25       2.39793      .   S
    N0     O25       4.69716  1_556   S
    Zr26   O27       2.59449      .   S
    N1     O27       4.51540  1_545   S
    Zr26   O28       2.59619      .   S
    N5     O28       4.51753  1_556   S
    Zr26   O29       2.62976      .   S
    N1     O29       4.55652      .   S
    Zr26   O30       2.39790      .   S
    N9     O30       4.69709  1_656   S
    Zr26   O31       2.63040      .   S
    N5     O31       4.55787      .   S
    Zr26   O32       2.39698      .   S
    N3     O32       4.69586      .   S
    Zr33   O34       2.63036      .   S
    N10    O34       4.55783      .   S
    Zr33   O35       2.62977      .   S
    N7     O35       4.55662      .   S
    Zr33   O36       2.39707      .   S
    N2     O36       4.69598  1_565   S
    Zr33   O37       2.59444      .   S
    N7     O37       4.51533  1_565   S
    Zr33   O38       2.39779      .   S
    N9     O38       4.69697      .   S
    Zr33   O39       2.59625      .   S
    N10    O39       4.51756  1_554   S
