# CIF file generated by openbabel 2.4.90, see http://openbabel.sf.net
data_I
_chemical_name_common ''
_cell_length_a 19.597
_cell_length_b 14.255
_cell_length_c 14.261
_cell_angle_alpha 102.692
_cell_angle_beta 103.349
_cell_angle_gamma 103.22
_space_group_name_H-M_alt 'P 1'
_space_group_name_Hall 'P 1'
loop_
    _symmetry_equiv_pos_as_xyz
    x,y,z
loop_
    _atom_site_label
    _atom_site_type_symbol
    _atom_site_fract_x
    _atom_site_fract_y
    _atom_site_fract_z
    _atom_site_occupancy
    C0      C    0.45248   0.83494   0.27133   1.000
    C1      C    0.95249   0.83495   0.27133   1.000
    C2      C    0.29744   0.72872   0.16498   1.000
    C3      C    0.79744   0.72872   0.16498   1.000
    C4      C    0.04749   0.16505   0.72867   1.000
    C5      C    0.54750   0.16505   0.72867   1.000
    C6      C    0.20253   0.27127   0.83502   1.000
    C7      C    0.70253   0.27128   0.83500   1.000
    C8      C    0.03700   0.91432   0.49039   1.000
    C9      C    0.53700   0.91453   0.49040   1.000
    C10     C    0.16527   0.98352   0.59617   1.000
    C11     C    0.66527   0.98377   0.59618   1.000
    C12     C    0.22853   0.96292   0.32175   1.000
    C13     C    0.72854   0.96259   0.32173   1.000
    C14     C    0.09671   0.89824   0.22833   1.000
    C15     C    0.59673   0.89800   0.22831   1.000
    C16     C    0.03319   0.54577   0.27104   1.000
    C17     C    0.53320   0.54576   0.27104   1.000
    C18     C    0.01249   0.35239   0.25743   1.000
    C19     C    0.51250   0.35238   0.25744   1.000
    C20     C    0.23269   0.00051   0.07673   1.000
    C21     C    0.73269   0.00052   0.07674   1.000
    C22     C    0.26031   0.18676   0.06490   1.000
    C23     C    0.76031   0.18676   0.06490   1.000
    C24     C    0.21308   0.50961   0.08653   1.000
    C25     C    0.71309   0.50961   0.08648   1.000
    C26     C    0.08485   0.40385   0.01772   1.000
    C27     C    0.58486   0.40385   0.01765   1.000
    C28     C    0.02128   0.67811   0.03525   1.000
    C29     C    0.52128   0.67812   0.03534   1.000
    C30     C    0.15304   0.77150   0.10016   1.000
    C31     C    0.65304   0.77151   0.10021   1.000
    C32     C    0.21698   0.72924   0.45390   1.000
    C33     C    0.71698   0.72924   0.45390   1.000
    C34     C    0.23765   0.74291   0.64726   1.000
    C35     C    0.73765   0.74290   0.64725   1.000
    C36     C    0.01729   0.92315   0.99987   1.000
    C37     C    0.51729   0.92314   0.99988   1.000
    C38     C    0.48989   0.93495   0.81360   1.000
    C39     C    0.98990   0.93494   0.81363   1.000
    C40     C    0.46294   0.08685   0.50968   1.000
    C41     C    0.96294   0.08707   0.50969   1.000
    C42     C    0.33465   0.01783   0.40388   1.000
    C43     C    0.83464   0.01810   0.40389   1.000
    C44     C    0.27150   0.03535   0.67814   1.000
    C45     C    0.77151   0.03499   0.67811   1.000
    C46     C    0.40331   0.10042   0.77158   1.000
    C47     C    0.90332   0.10015   0.77155   1.000
    C48     C    0.46679   0.45427   0.72899   1.000
    C49     C    0.96680   0.45427   0.72899   1.000
    C50     C    0.48752   0.64765   0.74255   1.000
    C51     C    0.98753   0.64764   0.74255   1.000
    C52     C    0.26730   0.99951   0.92326   1.000
    C53     C    0.76730   0.99952   0.92320   1.000
    C54     C    0.23972   0.81326   0.93509   1.000
    C55     C    0.73971   0.81327   0.93510   1.000
    C56     C    0.28686   0.49046   0.91473   1.000
    C57     C    0.78686   0.49047   0.91483   1.000
    C58     C    0.41507   0.59620   0.98375   1.000
    C59     C    0.91507   0.59620   0.98387   1.000
    C60     C    0.47874   0.32176   0.96286   1.000
    C61     C    0.97875   0.32175   0.96271   1.000
    C62     C    0.34698   0.22840   0.89800   1.000
    C63     C    0.84699   0.22839   0.89827   1.000
    C64     C    0.28301   0.27079   0.54613   1.000
    C65     C    0.78302   0.27078   0.54613   1.000
    C66     C    0.26236   0.25707   0.35277   1.000
    C67     C    0.76237   0.25706   0.35277   1.000
    C68     C    0.48271   0.07684   0.00015   1.000
    C69     C    0.98270   0.07685   0.00016   1.000
    C70     C    0.01012   0.06504   0.18640   1.000
    C71     C    0.51013   0.06504   0.18639   1.000
    C72     C    0.08139   0.92691   0.45640   1.000
    C73     C    0.58139   0.92702   0.45640   1.000
    C74     C    0.15422   0.96506   0.51503   1.000
    C75     C    0.65422   0.96518   0.51503   1.000
    C76     C    0.21074   0.97979   0.46966   1.000
    C77     C    0.71074   0.97975   0.46965   1.000
    C78     C    0.18895   0.95475   0.36394   1.000
    C79     C    0.68896   0.95457   0.36392   1.000
    C80     C    0.11496   0.91758   0.31019   1.000
    C81     C    0.61497   0.91743   0.31010   1.000
    C82     C    0.40280   0.61071   0.21290   1.000
    C83     C    0.90280   0.61071   0.21289   1.000
    C84     C    0.41496   0.51268   0.21527   1.000
    C85     C    0.91496   0.51268   0.21528   1.000
    C86     C    0.47987   0.48930   0.24555   1.000
    C87     C    0.97987   0.48931   0.24556   1.000
    C88     C    0.46859   0.38635   0.23877   1.000
    C89     C    0.96859   0.38635   0.23877   1.000
    C90     C    0.39463   0.33076   0.20290   1.000
    C91     C    0.89463   0.33076   0.20293   1.000
    C92     C    0.36187   0.22462   0.18701   1.000
    C93     C    0.86187   0.22463   0.18701   1.000
    C94     C    0.33609   0.04706   0.19486   1.000
    C95     C    0.83610   0.04706   0.19487   1.000
    C96     C    0.28075   0.06182   0.12453   1.000
    C97     C    0.78076   0.06182   0.12454   1.000
    C98     C    0.29541   0.16163   0.11894   1.000
    C99     C    0.79541   0.16163   0.11895   1.000
    C100    C    0.34492   0.95092   0.21030   1.000
    C101    C    0.84492   0.95093   0.21038   1.000
    C102    C    0.16863   0.54357   0.07345   1.000
    C103    C    0.66864   0.54357   0.07342   1.000
    C104    C    0.09583   0.48496   0.03538   1.000
    C105    C    0.59584   0.48497   0.03536   1.000
    C106    C    0.03923   0.53030   0.01997   1.000
    C107    C    0.53923   0.53030   0.01997   1.000
    C108    C    0.06093   0.63595   0.04416   1.000
    C109    C    0.56093   0.63596   0.04421   1.000
    C110    C    0.13489   0.68969   0.08138   1.000
    C111    C    0.63489   0.68969   0.08141   1.000
    C112    C    0.34731   0.78709   0.38929   1.000
    C113    C    0.84731   0.78711   0.38929   1.000
    C114    C    0.33519   0.78489   0.48730   1.000
    C115    C    0.83519   0.78491   0.48730   1.000
    C116    C    0.27029   0.75472   0.51052   1.000
    C117    C    0.77029   0.75471   0.51051   1.000
    C118    C    0.28157   0.76151   0.61346   1.000
    C119    C    0.78158   0.76152   0.61346   1.000
    C120    C    0.35552   0.79728   0.66926   1.000
    C121    C    0.85553   0.79729   0.66926   1.000
    C122    C    0.38823   0.81316   0.77546   1.000
    C123    C    0.88824   0.81317   0.77546   1.000
    C124    C    0.41382   0.80535   0.95305   1.000
    C125    C    0.91383   0.80536   0.95305   1.000
    C126    C    0.46926   0.87544   0.93844   1.000
    C127    C    0.96927   0.87544   0.93844   1.000
    C128    C    0.45471   0.88103   0.83863   1.000
    C129    C    0.95471   0.88104   0.83863   1.000
    C130    C    0.40495   0.78994   0.04913   1.000
    C131    C    0.90496   0.78995   0.04913   1.000
    C132    C    0.41857   0.07369   0.54361   1.000
    C133    C    0.91857   0.07381   0.54361   1.000
    C134    C    0.34573   0.03556   0.48500   1.000
    C135    C    0.84573   0.03567   0.48500   1.000
    C136    C    0.28924   0.02003   0.53032   1.000
    C137    C    0.78925   0.02000   0.53032   1.000
    C138    C    0.31106   0.04432   0.63600   1.000
    C139    C    0.81107   0.04411   0.63598   1.000
    C140    C    0.38505   0.08161   0.68975   1.000
    C141    C    0.88506   0.08144   0.68974   1.000
    C142    C    0.09718   0.38930   0.78715   1.000
    C143    C    0.59718   0.38930   0.78714   1.000
    C144    C    0.08503   0.48733   0.78480   1.000
    C145    C    0.58503   0.48734   0.78480   1.000
    C146    C    0.02012   0.51072   0.75448   1.000
    C147    C    0.52012   0.51073   0.75448   1.000
    C148    C    0.03142   0.61367   0.76124   1.000
    C149    C    0.53142   0.61368   0.76124   1.000
    C150    C    0.10538   0.66925   0.79709   1.000
    C151    C    0.60538   0.66926   0.79700   1.000
    C152    C    0.13814   0.77538   0.81299   1.000
    C153    C    0.63815   0.77539   0.81299   1.000
    C154    C    0.16390   0.95294   0.80512   1.000
    C155    C    0.66390   0.95295   0.80512   1.000
    C156    C    0.21925   0.93819   0.87545   1.000
    C157    C    0.71925   0.93820   0.87546   1.000
    C158    C    0.20460   0.83838   0.88105   1.000
    C159    C    0.70460   0.83839   0.88106   1.000
    C160    C    0.15507   0.04908   0.78962   1.000
    C161    C    0.65506   0.04909   0.78963   1.000
    C162    C    0.33132   0.45645   0.92721   1.000
    C163    C    0.83132   0.45646   0.92725   1.000
    C164    C    0.40412   0.51505   0.96528   1.000
    C165    C    0.90413   0.51506   0.96534   1.000
    C166    C    0.46075   0.46968   0.97985   1.000
    C167    C    0.96076   0.46967   0.97982   1.000
    C168    C    0.43908   0.36397   0.95481   1.000
    C169    C    0.93909   0.36396   0.95474   1.000
    C170    C    0.36512   0.31024   0.91774   1.000
    C171    C    0.86512   0.31024   0.91766   1.000
    C172    C    0.15267   0.21294   0.61072   1.000
    C173    C    0.65267   0.21295   0.61072   1.000
    C174    C    0.16479   0.21517   0.51272   1.000
    C175    C    0.66480   0.21519   0.51272   1.000
    C176    C    0.22970   0.24531   0.48951   1.000
    C177    C    0.72971   0.24532   0.48951   1.000
    C178    C    0.21843   0.23849   0.38657   1.000
    C179    C    0.71844   0.23849   0.38656   1.000
    C180    C    0.14449   0.20273   0.33076   1.000
    C181    C    0.64449   0.20274   0.33070   1.000
    C182    C    0.11178   0.18683   0.22455   1.000
    C183    C    0.61178   0.18684   0.22455   1.000
    C184    C    0.08617   0.19462   0.04696   1.000
    C185    C    0.58618   0.19463   0.04696   1.000
    C186    C    0.03074   0.12454   0.06158   1.000
    C187    C    0.53075   0.12455   0.06157   1.000
    C188    C    0.04530   0.11896   0.16100   1.000
    C189    C    0.54531   0.11896   0.16139   1.000
    C190    C    0.09502   0.21005   0.95088   1.000
    C191    C    0.59504   0.21006   0.95088   1.000
    C192    C    0.33963   0.40749   0.17859   1.000
    C193    C    0.83963   0.40749   0.17860   1.000
    C194    C    0.40535   0.15877   0.25793   1.000
    C195    C    0.90536   0.15877   0.25790   1.000
    C196    C    0.41051   0.82155   0.59268   1.000
    C197    C    0.91051   0.82156   0.59260   1.000
    C198    C    0.34462   0.74241   0.84115   1.000
    C199    C    0.84462   0.74242   0.84115   1.000
    C200    C    0.16037   0.59251   0.82147   1.000
    C201    C    0.66037   0.59252   0.82140   1.000
    C202    C    0.09465   0.84122   0.74206   1.000
    C203    C    0.59466   0.84122   0.74205   1.000
    C204    C    0.08949   0.17850   0.40732   1.000
    C205    C    0.58949   0.17852   0.40732   1.000
    C206    C    0.15539   0.25755   0.15885   1.000
    C207    C    0.65539   0.25757   0.15885   1.000
    C208    C    0.06133   0.90305   0.35495   1.000
    C209    C    0.56133   0.90304   0.35495   1.000
    C210    C    0.18861   0.64499   0.09662   1.000
    C211    C    0.68861   0.64499   0.09662   1.000
    C212    C    0.43865   0.09689   0.64503   1.000
    C213    C    0.93865   0.09687   0.64503   1.000
    C214    C    0.31137   0.35499   0.90332   1.000
    C215    C    0.81137   0.35500   0.90331   1.000
    C216    C    0.45866   0.68722   0.23868   1.000
    C217    C    0.95866   0.68722   0.23869   1.000
    C218    C    0.41459   0.81501   0.39052   1.000
    C219    C    0.91459   0.81501   0.39052   1.000
    C220    C    0.40626   0.95472   0.26912   1.000
    C221    C    0.90627   0.95473   0.26910   1.000
    C222    C    0.29102   0.87192   0.16257   1.000
    C223    C    0.79102   0.87193   0.16260   1.000
    C224    C    0.29139   0.76129   0.31272   1.000
    C225    C    0.79139   0.76128   0.31272   1.000
    C226    C    0.33549   0.60954   0.18483   1.000
    C227    C    0.83549   0.60954   0.18483   1.000
    C228    C    0.34363   0.73131   0.04522   1.000
    C229    C    0.84364   0.73134   0.04522   1.000
    C230    C    0.45885   0.83769   0.12822   1.000
    C231    C    0.95886   0.83769   0.12822   1.000
    C232    C    0.04132   0.31278   0.76132   1.000
    C233    C    0.54132   0.31278   0.76130   1.000
    C234    C    0.08539   0.18501   0.60949   1.000
    C235    C    0.58539   0.18502   0.60948   1.000
    C236    C    0.09372   0.04527   0.73088   1.000
    C237    C    0.59374   0.04527   0.73083   1.000
    C238    C    0.20896   0.12808   0.83740   1.000
    C239    C    0.70895   0.12809   0.83746   1.000
    C240    C    0.20859   0.23871   0.68728   1.000
    C241    C    0.70859   0.23871   0.68728   1.000
    C242    C    0.16449   0.39046   0.81520   1.000
    C243    C    0.66449   0.39046   0.81519   1.000
    C244    C    0.15635   0.26864   0.95478   1.000
    C245    C    0.65635   0.26869   0.95478   1.000
    C246    C    0.04112   0.16232   0.87179   1.000
    C247    C    0.54114   0.16230   0.87178   1.000
    O248    O    0.50673   0.10069   0.03086   1.000
    O249    O    0.00672   0.10069   0.03087   1.000
    O250    O    0.59035   0.44441   0.02651   1.000
    O251    O    0.09034   0.44441   0.02655   1.000
    O252    O    0.06753   0.50763   0.02768   1.000
    O253    O    0.05008   0.58312   0.03207   1.000
    O254    O    0.99999   0.49998   0.99990   1.000
    O255    O    0.56753   0.50763   0.02767   1.000
    O256    O    0.55008   0.58313   0.03209   1.000
    O257    O    0.49999   0.49999   0.99991   1.000
    O258    O    0.04110   0.65703   0.03971   1.000
    O259    O    0.54111   0.65704   0.03978   1.000
    O260    O    0.63224   0.51427   0.05439   1.000
    O261    O    0.13223   0.51426   0.05442   1.000
    O262    O    0.09791   0.66282   0.06277   1.000
    O263    O    0.59791   0.66283   0.06281   1.000
    O264    O    0.37429   0.76063   0.04718   1.000
    O265    O    0.32054   0.73002   0.10510   1.000
    O266    O    0.87430   0.76064   0.04718   1.000
    O267    O    0.82054   0.73003   0.10510   1.000
    O268    O    0.05845   0.15958   0.05427   1.000
    O269    O    0.12078   0.22609   0.10291   1.000
    O270    O    0.09060   0.20234   0.99892   1.000
    O271    O    0.55846   0.15959   0.05427   1.000
    O272    O    0.62078   0.22610   0.10291   1.000
    O273    O    0.59061   0.20235   0.99892   1.000
    O274    O    0.43190   0.81381   0.08868   1.000
    O275    O    0.40939   0.79764   0.00109   1.000
    O276    O    0.93191   0.81382   0.08868   1.000
    O277    O    0.90939   0.79766   0.00109   1.000
    O278    O    0.53803   0.12175   0.11148   1.000
    O279    O    0.03802   0.12175   0.11129   1.000
    O280    O    0.77786   0.17420   0.09193   1.000
    O281    O    0.27786   0.17419   0.09192   1.000
    O282    O    0.69086   0.52659   0.07995   1.000
    O283    O    0.67863   0.59428   0.08502   1.000
    O284    O    0.19086   0.52659   0.07999   1.000
    O285    O    0.17862   0.59428   0.08504   1.000
    O286    O    0.25672   0.03116   0.10063   1.000
    O287    O    0.75672   0.03117   0.10064   1.000
    O288    O    0.16175   0.66734   0.08900   1.000
    O289    O    0.14396   0.73059   0.09077   1.000
    O290    O    0.66175   0.66734   0.08902   1.000
    O291    O    0.64397   0.73060   0.09081   1.000
    O292    O    0.24302   0.68685   0.13080   1.000
    O293    O    0.74303   0.68686   0.13080   1.000
    O294    O    0.28808   0.11172   0.12174   1.000
    O295    O    0.32864   0.19313   0.15298   1.000
    O296    O    0.78809   0.11173   0.12175   1.000
    O297    O    0.82864   0.19313   0.15298   1.000
    O298    O    0.30842   0.05444   0.15970   1.000
    O299    O    0.80843   0.05444   0.15971   1.000
    O300    O    0.95567   0.83632   0.19978   1.000
    O301    O    0.45566   0.83632   0.19978   1.000
    O302    O    0.13358   0.22219   0.19170   1.000
    O303    O    0.63358   0.22221   0.19170   1.000
    O304    O    0.02771   0.09200   0.17370   1.000
    O305    O    0.07854   0.15289   0.19278   1.000
    O306    O    0.52772   0.09200   0.17389   1.000
    O307    O    0.57855   0.15290   0.19297   1.000
    O308    O    0.29423   0.80032   0.16378   1.000
    O309    O    0.31797   0.91142   0.18644   1.000
    O310    O    0.79423   0.80032   0.16379   1.000
    O311    O    0.81797   0.91143   0.18649   1.000
    O312    O    0.81646   0.66913   0.17491   1.000
    O313    O    0.79441   0.74500   0.23885   1.000
    O314    O    0.31646   0.66913   0.17491   1.000
    O315    O    0.29441   0.74500   0.23885   1.000
    O316    O    0.36713   0.36912   0.19075   1.000
    O317    O    0.37729   0.46008   0.19693   1.000
    O318    O    0.86713   0.36913   0.19077   1.000
    O319    O    0.87729   0.46009   0.19694   1.000
    O320    O    0.36914   0.61012   0.19887   1.000
    O321    O    0.86914   0.61012   0.19886   1.000
    O322    O    0.37825   0.27769   0.19496   1.000
    O323    O    0.38361   0.19170   0.22247   1.000
    O324    O    0.87825   0.27769   0.19497   1.000
    O325    O    0.88362   0.19170   0.22246   1.000
    O326    O    0.34051   0.99899   0.20258   1.000
    O327    O    0.37072   0.10291   0.22640   1.000
    O328    O    0.84051   0.99899   0.20263   1.000
    O329    O    0.87073   0.10292   0.22639   1.000
    O330    O    0.43161   0.35855   0.22084   1.000
    O331    O    0.93161   0.35856   0.22085   1.000
    O332    O    0.37559   0.95282   0.23971   1.000
    O333    O    0.87560   0.95283   0.23974   1.000
    O334    O    0.90888   0.56169   0.21409   1.000
    O335    O    0.93073   0.64896   0.22579   1.000
    O336    O    0.40888   0.56169   0.21409   1.000
    O337    O    0.43073   0.64896   0.22579   1.000
    O338    O    0.44741   0.50099   0.23041   1.000
    O339    O    0.94742   0.50099   0.23042   1.000
    O340    O    0.62813   0.19479   0.27763   1.000
    O341    O    0.12813   0.19478   0.27766   1.000
    O342    O    0.60585   0.90772   0.26921   1.000
    O343    O    0.10584   0.90791   0.26926   1.000
    O344    O    0.45557   0.76108   0.25501   1.000
    O345    O    0.95557   0.76108   0.25501   1.000
    O346    O    0.97423   0.43783   0.24217   1.000
    O347    O    0.99054   0.36937   0.24810   1.000
    O348    O    0.47423   0.43782   0.24216   1.000
    O349    O    0.49054   0.36936   0.24811   1.000
    O350    O    0.50654   0.51753   0.25830   1.000
    O351    O    0.00653   0.51754   0.25830   1.000
    O352    O    0.92938   0.89484   0.27022   1.000
    O353    O    0.42937   0.89483   0.27023   1.000
    O354    O    0.00691   0.86900   0.31314   1.000
    O355    O    0.93354   0.82498   0.33093   1.000
    O356    O    0.50691   0.86899   0.31314   1.000
    O357    O    0.43353   0.82498   0.33093   1.000
    O358    O    0.58815   0.91024   0.33253   1.000
    O359    O    0.65196   0.93600   0.33701   1.000
    O360    O    0.08814   0.91032   0.33257   1.000
    O361    O    0.15195   0.93617   0.33707   1.000
    O362    O    0.31935   0.77419   0.35101   1.000
    O363    O    0.81935   0.77420   0.35101   1.000
    O364    O    0.70875   0.95858   0.34283   1.000
    O365    O    0.20874   0.95883   0.34285   1.000
    O366    O    0.68146   0.22061   0.35863   1.000
    O367    O    0.61699   0.19063   0.36901   1.000
    O368    O    0.18146   0.22061   0.35867   1.000
    O369    O    0.11699   0.19061   0.36904   1.000
    O370    O    0.74040   0.24778   0.36967   1.000
    O371    O    0.24040   0.24778   0.36967   1.000
    O372    O    0.07136   0.91498   0.40568   1.000
    O373    O    0.57136   0.91503   0.40568   1.000
    O374    O    0.69985   0.96716   0.41679   1.000
    O375    O    0.19984   0.96727   0.41680   1.000
    O376    O    0.72407   0.24190   0.43804   1.000
    O377    O    0.22407   0.24190   0.43804   1.000
    O378    O    0.88095   0.80106   0.38991   1.000
    O379    O    0.84125   0.78601   0.43830   1.000
    O380    O    0.38095   0.80105   0.38991   1.000
    O381    O    0.34125   0.78599   0.43830   1.000
    O382    O    0.34019   0.02669   0.44444   1.000
    O383    O    0.84019   0.02688   0.44445   1.000
    O384    O    0.12714   0.19683   0.46002   1.000
    O385    O    0.62714   0.19685   0.46002   1.000
    O386    O    0.74364   0.74197   0.48221   1.000
    O387    O    0.24363   0.74198   0.48221   1.000
    O388    O    0.55919   0.92077   0.47340   1.000
    O389    O    0.61781   0.94610   0.48572   1.000
    O390    O    0.05919   0.92061   0.47340   1.000
    O391    O    0.11780   0.94599   0.48572   1.000
    O392    O    0.68248   0.97246   0.49234   1.000
    O393    O    0.74999   0.99987   0.49999   1.000
    O394    O    0.18248   0.97243   0.49235   1.000
    O395    O    0.24999   0.99991   0.49999   1.000
    O396    O    0.31749   0.02779   0.50766   1.000
    O397    O    0.38215   0.05462   0.51431   1.000
    O398    O    0.81749   0.02784   0.50766   1.000
    O399    O    0.88215   0.05474   0.51431   1.000
    O400    O    0.30274   0.76980   0.49891   1.000
    O401    O    0.37285   0.80322   0.53999   1.000
    O402    O    0.80274   0.76981   0.49891   1.000
    O403    O    0.87285   0.80324   0.53995   1.000
    O404    O    0.19725   0.23024   0.50112   1.000
    O405    O    0.25636   0.25805   0.51782   1.000
    O406    O    0.69725   0.23025   0.50112   1.000
    O407    O    0.75636   0.25805   0.51782   1.000
    O408    O    0.44075   0.08027   0.52665   1.000
    O409    O    0.94075   0.08044   0.52665   1.000
    O410    O    0.77594   0.75811   0.56199   1.000
    O411    O    0.27593   0.75812   0.56199   1.000
    O412    O    0.15873   0.21405   0.56172   1.000
    O413    O    0.65873   0.21407   0.56172   1.000
    O414    O    0.65975   0.97448   0.55561   1.000
    O415    O    0.15975   0.97429   0.55560   1.000
    O416    O    0.30015   0.03217   0.58316   1.000
    O417    O    0.80016   0.03206   0.58315   1.000
    O418    O    0.42861   0.08529   0.59432   1.000
    O419    O    0.92861   0.08534   0.59432   1.000
    O420    O    0.88302   0.80943   0.63093   1.000
    O421    O    0.38302   0.80942   0.63097   1.000
    O422    O    0.61903   0.19899   0.61010   1.000
    O423    O    0.56644   0.17503   0.66908   1.000
    O424    O    0.11903   0.19898   0.61011   1.000
    O425    O    0.06644   0.17503   0.66908   1.000
    O426    O    0.68063   0.22583   0.64900   1.000
    O427    O    0.18063   0.22583   0.64900   1.000
    O428    O    0.25961   0.75221   0.63036   1.000
    O429    O    0.31855   0.77940   0.64136   1.000
    O430    O    0.75962   0.75221   0.63036   1.000
    O431    O    0.81855   0.77940   0.64136   1.000
    O432    O    0.79129   0.03955   0.65705   1.000
    O433    O    0.84806   0.06277   0.66286   1.000
    O434    O    0.29128   0.03983   0.65707   1.000
    O435    O    0.34805   0.06296   0.66288   1.000
    O436    O    0.91185   0.08915   0.66739   1.000
    O437    O    0.99307   0.13096   0.68685   1.000
    O438    O    0.41185   0.08925   0.66739   1.000
    O439    O    0.49307   0.13097   0.68685   1.000
    O440    O    0.87188   0.80523   0.72236   1.000
    O441    O    0.37188   0.80522   0.72236   1.000
    O442    O    0.70556   0.25499   0.76114   1.000
    O443    O    0.20556   0.25499   0.76115   1.000
    O444    O    0.89419   0.09079   0.73065   1.000
    O445    O    0.39418   0.09102   0.73067   1.000
    O446    O    0.57062   0.10516   0.72975   1.000
    O447    O    0.54441   0.23892   0.74499   1.000
    O448    O    0.54432   0.16367   0.80023   1.000
    O449    O    0.07060   0.10516   0.72978   1.000
    O450    O    0.04440   0.23891   0.74500   1.000
    O451    O    0.04430   0.16368   0.80023   1.000
    O452    O    0.99346   0.48249   0.74174   1.000
    O453    O    0.49346   0.48250   0.74174   1.000
    O454    O    0.62440   0.04718   0.76023   1.000
    O455    O    0.12439   0.04718   0.76025   1.000
    O456    O    0.62928   0.89709   0.77359   1.000
    O457    O    0.61640   0.80831   0.77752   1.000
    O458    O    0.12928   0.89708   0.77359   1.000
    O459    O    0.11640   0.80830   0.77753   1.000
    O460    O    0.00947   0.63066   0.75190   1.000
    O461    O    0.50947   0.63066   0.75190   1.000
    O462    O    0.02577   0.56220   0.75786   1.000
    O463    O    0.05257   0.49903   0.76964   1.000
    O464    O    0.52577   0.56220   0.75786   1.000
    O465    O    0.55258   0.49903   0.76964   1.000
    O466    O    0.06840   0.64146   0.77917   1.000
    O467    O    0.56840   0.64147   0.77912   1.000
    O468    O    0.56925   0.35104   0.77422   1.000
    O469    O    0.06925   0.35104   0.77424   1.000
    O470    O    0.42147   0.84710   0.80705   1.000
    O471    O    0.36643   0.77779   0.80831   1.000
    O472    O    0.92147   0.84710   0.80705   1.000
    O473    O    0.86643   0.77779   0.80831   1.000
    O474    O    0.59111   0.43832   0.78597   1.000
    O475    O    0.62270   0.53993   0.80310   1.000
    O476    O    0.09110   0.43832   0.78598   1.000
    O477    O    0.12270   0.53992   0.80314   1.000
    O478    O    0.63084   0.38988   0.80117   1.000
    O479    O    0.13083   0.38988   0.80118   1.000
    O480    O    0.15948   0.00101   0.79737   1.000
    O481    O    0.18202   0.08858   0.81351   1.000
    O482    O    0.65948   0.00102   0.79738   1.000
    O483    O    0.68201   0.08859   0.81355   1.000
    O484    O    0.62176   0.72232   0.80500   1.000
    O485    O    0.63288   0.63089   0.80920   1.000
    O486    O    0.12176   0.72232   0.80504   1.000
    O487    O    0.13287   0.63088   0.80928   1.000
    O488    O    0.69158   0.94557   0.84029   1.000
    O489    O    0.19158   0.94557   0.84029   1.000
    O490    O    0.67137   0.80689   0.84703   1.000
    O491    O    0.17137   0.80688   0.84702   1.000
    O492    O    0.47230   0.90799   0.82612   1.000
    O493    O    0.97231   0.90799   0.82613   1.000
    O494    O    0.68351   0.33087   0.82510   1.000
    O495    O    0.18351   0.33086   0.82511   1.000
    O496    O    0.70574   0.19969   0.83623   1.000
    O497    O    0.75695   0.31314   0.86916   1.000
    O498    O    0.67944   0.26998   0.89489   1.000
    O499    O    0.20575   0.19968   0.83621   1.000
    O500    O    0.25695   0.31313   0.86917   1.000
    O501    O    0.17944   0.26996   0.89490   1.000
    O502    O    0.46198   0.87824   0.88854   1.000
    O503    O    0.96199   0.87824   0.88854   1.000
    O504    O    0.87923   0.77389   0.89710   1.000
    O505    O    0.37922   0.77388   0.89710   1.000
    O506    O    0.56809   0.18618   0.91133   1.000
    O507    O    0.06807   0.18619   0.91134   1.000
    O508    O    0.21193   0.88829   0.87825   1.000
    O509    O    0.24328   0.96885   0.89936   1.000
    O510    O    0.71193   0.88830   0.87826   1.000
    O511    O    0.74327   0.96886   0.89933   1.000
    O512    O    0.22216   0.82582   0.90807   1.000
    O513    O    0.72216   0.82583   0.90808   1.000
    O514    O    0.35605   0.26932   0.90787   1.000
    O515    O    0.85606   0.26931   0.90797   1.000
    O516    O    0.83825   0.33262   0.91049   1.000
    O517    O    0.82135   0.40573   0.91528   1.000
    O518    O    0.33824   0.33262   0.91053   1.000
    O519    O    0.32134   0.40572   0.91527   1.000
    O520    O    0.30909   0.47345   0.92097   1.000
    O521    O    0.80909   0.47346   0.92104   1.000
    O522    O    0.90210   0.33710   0.93620   1.000
    O523    O    0.40210   0.33711   0.93628   1.000
    O524    O    0.36772   0.48575   0.94625   1.000
    O525    O    0.86773   0.48576   0.94630   1.000
    O526    O    0.94155   0.84040   0.94575   1.000
    O527    O    0.99328   0.89930   0.96916   1.000
    O528    O    0.44154   0.84040   0.94575   1.000
    O529    O    0.49328   0.89929   0.96916   1.000
    O530    O    0.12569   0.23935   0.95283   1.000
    O531    O    0.62569   0.23937   0.95283   1.000
    O532    O    0.95892   0.34286   0.95873   1.000
    O533    O    0.94992   0.41682   0.96728   1.000
    O534    O    0.45891   0.34287   0.95884   1.000
    O535    O    0.44992   0.41682   0.96733   1.000
    O536    O    0.43244   0.49237   0.97257   1.000
    O537    O    0.40959   0.55563   0.97452   1.000
    O538    O    0.93244   0.49237   0.97258   1.000
    O539    O    0.90960   0.55563   0.97461   1.000
    O540    O    0.37496   0.78183   0.21816   1.000
    O541    O    0.87496   0.78183   0.21816   1.000
    O542    O    0.12501   0.21816   0.78185   1.000
    O543    O    0.62502   0.21816   0.78184   1.000
loop_
    _geom_bond_atom_site_label_1
    _geom_bond_atom_site_label_2
    _geom_bond_distance
    _geom_bond_site_symmetry_2
    _ccdc_geom_bond_type
    C68    O248      0.54331      .   S
    C187   O248      0.54331      .   S
    C69    O249      0.54326  1_655   S
    C186   O249      0.54326      .   S
    C27    O250      0.54311      .   S
    C105   O250      0.54311      .   S
    C26    O251      0.54312      .   S
    C104   O251      0.54312      .   S
    C106   O252      0.70250      .   S
    C104   O252      0.70250      .   S
    C106   O253      0.70344      .   S
    C108   O253      0.70344      .   S
    C106   O254      0.74288  1_454   S
    C167   O254      0.74288      .   S
    C107   O255      0.70250      .   S
    C105   O255      0.70250      .   S
    C107   O256      0.70344      .   S
    C109   O256      0.70344      .   S
    C107   O257      0.74296  1_554   S
    C166   O257      0.74296      .   S
    C28    O258      0.54368      .   S
    C108   O258      0.54368      .   S
    C29    O259      0.54367      .   S
    C109   O259      0.54367      .   S
    C105   O260      0.69391      .   S
    C103   O260      0.69391      .   S
    C104   O261      0.69390      .   S
    C102   O261      0.69390      .   S
    C108   O262      0.69419      .   S
    C110   O262      0.69419      .   S
    C109   O263      0.69419      .   S
    C111   O263      0.69419      .   S
    C228   O264      0.63931      .   S
    C130   O264      0.63931      .   S
    C228   O265      1.05644      .   S
    C2     O265      1.05644      .   S
    C229   O266      0.63930      .   S
    C131   O266      0.63930      .   S
    C229   O267      1.05647      .   S
    C3     O267      1.05647      .   S
    C184   O268      0.69303      .   S
    C186   O268      0.69303      .   S
    C184   O269      0.86686      .   S
    C206   O269      0.86686      .   S
    C184   O270      0.73835  1_554   S
    C190   O270      0.73835      .   S
    C185   O271      0.69302      .   S
    C187   O271      0.69302      .   S
    C185   O272      0.86684      .   S
    C207   O272      0.86684      .   S
    C185   O273      0.73836  1_554   S
    C191   O273      0.73836      .   S
    C130   O274      0.63927      .   S
    C230   O274      0.63927      .   S
    C130   O275      0.73836      .   S
    C124   O275      0.73836  1_556   S
    C131   O276      0.63928      .   S
    C231   O276      0.63928      .   S
    C131   O277      0.73835      .   S
    C125   O277      0.73835  1_556   S
    C187   O278      0.70478      .   S
    C189   O278      0.70478      .   S
    C186   O279      0.70200      .   S
    C188   O279      0.70200      .   S
    C23    O280      0.54425      .   S
    C99    O280      0.54425      .   S
    C22    O281      0.54420      .   S
    C98    O281      0.54420      .   S
    C103   O282      0.54436      .   S
    C25    O282      0.54436      .   S
    C103   O283      0.67530      .   S
    C211   O283      0.67530      .   S
    C102   O284      0.54436      .   S
    C24    O284      0.54436      .   S
    C102   O285      0.67529      .   S
    C210   O285      0.67529      .   S
    C20    O286      0.54331      .   S
    C96    O286      0.54331      .   S
    C21    O287      0.54332      .   S
    C97    O287      0.54332      .   S
    C110   O288      0.67520      .   S
    C210   O288      0.67520      .   S
    C110   O289      0.54483      .   S
    C30    O289      0.54483      .   S
    C111   O290      0.67521      .   S
    C211   O290      0.67521      .   S
    C111   O291      0.54483      .   S
    C31    O291      0.54483      .   S
    C210   O292      1.03536      .   S
    C2     O292      1.03536      .   S
    C211   O293      1.03534      .   S
    C3     O293      1.03534      .   S
    C98    O294      0.70476      .   S
    C96    O294      0.70476      .   S
    C98    O295      0.69697      .   S
    C92    O295      0.69697      .   S
    C99    O296      0.70476      .   S
    C97    O296      0.70476      .   S
    C99    O297      0.69695      .   S
    C93    O297      0.69695      .   S
    C96    O298      0.69305      .   S
    C94    O298      0.69305      .   S
    C97    O299      0.69305      .   S
    C95    O299      0.69305      .   S
    C231   O300      1.04079      .   S
    C1     O300      1.04079      .   S
    C230   O301      1.04078      .   S
    C0     O301      1.04078      .   S
    C206   O302      0.86824      .   S
    C182   O302      0.86824      .   S
    C207   O303      0.86827      .   S
    C183   O303      0.86827      .   S
    C188   O304      0.54599      .   S
    C70    O304      0.54599      .   S
    C188   O305      0.69777      .   S
    C182   O305      0.69777      .   S
    C189   O306      0.54421      .   S
    C71    O306      0.54421      .   S
    C189   O307      0.69698      .   S
    C183   O307      0.69698      .   S
    C222   O308      1.04044      .   S
    C2     O308      1.04044      .   S
    C222   O309      0.63922      .   S
    C100   O309      0.63922      .   S
    C223   O310      1.04045      .   S
    C3     O310      1.04045      .   S
    C223   O311      0.63931      .   S
    C101   O311      0.63931      .   S
    C3     O312      1.02662      .   S
    C227   O312      1.02662      .   S
    C3     O313      1.04635      .   S
    C225   O313      1.04635      .   S
    C2     O314      1.02661      .   S
    C226   O314      1.02661      .   S
    C2     O315      1.04635      .   S
    C224   O315      1.04635      .   S
    C192   O316      0.86773      .   S
    C90    O316      0.86773      .   S
    C192   O317      0.86424      .   S
    C84    O317      0.86424      .   S
    C193   O318      0.86777      .   S
    C91    O318      0.86777      .   S
    C193   O319      0.86423      .   S
    C85    O319      0.86423      .   S
    C226   O320      0.64107      .   S
    C82    O320      0.64107      .   S
    C227   O321      0.64107      .   S
    C83    O321      0.64107      .   S
    C92    O322      0.72293      .   S
    C90    O322      0.72293      .   S
    C92    O323      0.86826      .   S
    C194   O323      0.86826      .   S
    C93    O324      0.72288      .   S
    C91    O324      0.72288      .   S
    C93    O325      0.86815      .   S
    C195   O325      0.86815      .   S
    C94    O326      0.73824  1_545   S
    C100   O326      0.73824      .   S
    C94    O327      0.86680      .   S
    C194   O327      0.86680      .   S
    C95    O328      0.73839  1_545   S
    C101   O328      0.73839      .   S
    C95    O329      0.86677      .   S
    C195   O329      0.86677      .   S
    C90    O330      0.69720      .   S
    C88    O330      0.69720      .   S
    C91    O331      0.69720      .   S
    C89    O331      0.69720      .   S
    C100   O332      0.63954      .   S
    C220   O332      0.63954      .   S
    C101   O333      0.63932      .   S
    C221   O333      0.63932      .   S
    C83    O334      0.73822      .   S
    C85    O334      0.73822      .   S
    C83    O335      0.63538      .   S
    C217   O335      0.63538      .   S
    C82    O336      0.73822      .   S
    C84    O336      0.73822      .   S
    C82    O337      0.63538      .   S
    C216   O337      0.63538      .   S
    C84    O338      0.69271      .   S
    C86    O338      0.69271      .   S
    C85    O339      0.69271      .   S
    C87    O339      0.69271      .   S
    C183   O340      0.72260      .   S
    C181   O340      0.72260      .   S
    C182   O341      0.72298      .   S
    C180   O341      0.72298      .   S
    C15    O342      0.54434      .   S
    C81    O342      0.54434      .   S
    C14    O343      0.54484      .   S
    C80    O343      0.54484      .   S
    C216   O344      1.04616      .   S
    C0     O344      1.04616      .   S
    C217   O345      1.04614      .   S
    C1     O345      1.04614      .   S
    C89    O346      0.70560      .   S
    C87    O346      0.70560      .   S
    C89    O347      0.54466      .   S
    C18    O347      0.54466  1_455   S
    C88    O348      0.70560      .   S
    C86    O348      0.70560      .   S
    C88    O349      0.54477      .   S
    C19    O349      0.54477      .   S
    C86    O350      0.54392      .   S
    C17    O350      0.54392      .   S
    C87    O351      0.54384  1_655   S
    C16    O351      0.54384      .   S
    C221   O352      1.05528      .   S
    C1     O352      1.05528      .   S
    C220   O353      1.05531      .   S
    C0     O353      1.05531      .   S
    C1     O354      1.03489  1_655   S
    C208   O354      1.03489      .   S
    C1     O355      1.02713      .   S
    C219   O355      1.02713      .   S
    C0     O356      1.03498      .   S
    C209   O356      1.03498      .   S
    C0     O357      1.02709      .   S
    C218   O357      1.02709      .   S
    C81    O358      0.67553      .   S
    C209   O358      0.67553      .   S
    C81    O359      0.69431      .   S
    C79    O359      0.69431      .   S
    C80    O360      0.67512      .   S
    C208   O360      0.67512      .   S
    C80    O361      0.69419      .   S
    C78    O361      0.69419      .   S
    C224   O362      0.63545      .   S
    C112   O362      0.63545      .   S
    C225   O363      0.63544      .   S
    C113   O363      0.63544      .   S
    C13    O364      0.54362      .   S
    C79    O364      0.54362      .   S
    C12    O365      0.54366      .   S
    C78    O365      0.54366      .   S
    C181   O366      0.69732      .   S
    C179   O366      0.69732      .   S
    C181   O367      0.86808      .   S
    C205   O367      0.86808      .   S
    C180   O368      0.69723      .   S
    C178   O368      0.69723      .   S
    C180   O369      0.86774      .   S
    C204   O369      0.86774      .   S
    C67    O370      0.54472      .   S
    C179   O370      0.54472      .   S
    C66    O371      0.54478      .   S
    C178   O371      0.54478      .   S
    C208   O372      0.67516      .   S
    C72    O372      0.67516      .   S
    C209   O373      0.67512      .   S
    C73    O373      0.67512      .   S
    C79    O374      0.70347      .   S
    C77    O374      0.70347      .   S
    C78    O375      0.70345      .   S
    C76    O375      0.70345      .   S
    C179   O376      0.70560      .   S
    C177   O376      0.70560      .   S
    C178   O377      0.70552      .   S
    C176   O377      0.70552      .   S
    C113   O378      0.64097      .   S
    C219   O378      0.64097      .   S
    C113   O379      0.73826      .   S
    C115   O379      0.73826      .   S
    C112   O380      0.64099      .   S
    C218   O380      0.64099      .   S
    C112   O381      0.73826      .   S
    C114   O381      0.73826      .   S
    C42    O382      0.54308      .   S
    C134   O382      0.54308      .   S
    C43    O383      0.54306      .   S
    C135   O383      0.54306      .   S
    C204   O384      0.86430      .   S
    C174   O384      0.86430      .   S
    C205   O385      0.86431      .   S
    C175   O385      0.86431      .   S
    C33    O386      0.54392      .   S
    C117   O386      0.54392      .   S
    C32    O387      0.54395      .   S
    C116   O387      0.54395      .   S
    C73    O388      0.54442      .   S
    C9     O388      0.54442      .   S
    C73    O389      0.69393      .   S
    C75    O389      0.69393      .   S
    C72    O390      0.54442      .   S
    C8     O390      0.54442      .   S
    C72    O391      0.69393      .   S
    C74    O391      0.69393      .   S
    C77    O392      0.70244      .   S
    C75    O392      0.70244      .   S
    C77    O393      0.74297      .   S
    C137   O393      0.74297  1_545   S
    C76    O394      0.70243      .   S
    C74    O394      0.70243      .   S
    C76    O395      0.74295      .   S
    C136   O395      0.74295  1_545   S
    C134   O396      0.70240      .   S
    C136   O396      0.70240      .   S
    C134   O397      0.69388      .   S
    C132   O397      0.69388      .   S
    C135   O398      0.70245      .   S
    C137   O398      0.70245      .   S
    C135   O399      0.69387      .   S
    C133   O399      0.69387      .   S
    C114   O400      0.69267      .   S
    C116   O400      0.69267      .   S
    C114   O401      0.86429      .   S
    C196   O401      0.86429      .   S
    C115   O402      0.69265      .   S
    C117   O402      0.69265      .   S
    C115   O403      0.86394      .   S
    C197   O403      0.86394      .   S
    C176   O404      0.69268      .   S
    C174   O404      0.69268      .   S
    C176   O405      0.54392      .   S
    C64    O405      0.54392      .   S
    C177   O406      0.69266      .   S
    C175   O406      0.69266      .   S
    C177   O407      0.54392      .   S
    C65    O407      0.54392      .   S
    C40    O408      0.54435      .   S
    C132   O408      0.54435      .   S
    C41    O409      0.54435      .   S
    C133   O409      0.54435      .   S
    C117   O410      0.70561      .   S
    C119   O410      0.70561      .   S
    C116   O411      0.70555      .   S
    C118   O411      0.70555      .   S
    C174   O412      0.73824      .   S
    C172   O412      0.73824      .   S
    C175   O413      0.73826      .   S
    C173   O413      0.73826      .   S
    C75    O414      0.54307      .   S
    C11    O414      0.54307      .   S
    C74    O415      0.54303      .   S
    C10    O415      0.54303      .   S
    C136   O416      0.70347      .   S
    C138   O416      0.70347      .   S
    C137   O417      0.70341      .   S
    C139   O417      0.70341      .   S
    C132   O418      0.67521      .   S
    C212   O418      0.67521      .   S
    C133   O419      0.67527      .   S
    C213   O419      0.67527      .   S
    C197   O420      0.86827      .   S
    C121   O420      0.86827      .   S
    C196   O421      0.86783      .   S
    C120   O421      0.86783      .   S
    C235   O422      0.64101      .   S
    C173   O422      0.64101      .   S
    C235   O423      1.02716      .   S
    C5     O423      1.02716      .   S
    C234   O424      0.64101      .   S
    C172   O424      0.64101      .   S
    C234   O425      1.02714      .   S
    C4     O425      1.02714      .   S
    C173   O426      0.63542      .   S
    C241   O426      0.63542      .   S
    C172   O427      0.63541      .   S
    C240   O427      0.63541      .   S
    C118   O428      0.54476      .   S
    C34    O428      0.54476      .   S
    C118   O429      0.69724      .   S
    C120   O429      0.69724      .   S
    C119   O430      0.54472      .   S
    C35    O430      0.54472      .   S
    C119   O431      0.69723      .   S
    C121   O431      0.69723      .   S
    C139   O432      0.54365      .   S
    C45    O432      0.54365      .   S
    C139   O433      0.69419      .   S
    C141   O433      0.69419      .   S
    C138   O434      0.54364      .   S
    C44    O434      0.54364      .   S
    C138   O435      0.69419      .   S
    C140   O435      0.69419      .   S
    C213   O436      0.67516      .   S
    C141   O436      0.67516      .   S
    C213   O437      1.03489      .   S
    C4     O437      1.03489  1_455   S
    C212   O438      0.67514      .   S
    C140   O438      0.67514      .   S
    C212   O439      1.03500      .   S
    C5     O439      1.03500      .   S
    C121   O440      0.72295      .   S
    C123   O440      0.72295      .   S
    C120   O441      0.72295      .   S
    C122   O441      0.72295      .   S
    C241   O442      1.04623      .   S
    C7     O442      1.04623      .   S
    C240   O443      1.04636      .   S
    C6     O443      1.04636      .   S
    C141   O444      0.54479      .   S
    C47    O444      0.54479      .   S
    C140   O445      0.54488      .   S
    C46    O445      0.54488      .   S
    C5     O446      1.05540      .   S
    C237   O446      1.05540      .   S
    C5     O447      1.04622      .   S
    C233   O447      1.04622      .   S
    C5     O448      1.04074      .   S
    C247   O448      1.04074      .   S
    C4     O449      1.05536      .   S
    C236   O449      1.05536      .   S
    C4     O450      1.04619      .   S
    C232   O450      1.04619      .   S
    C4     O451      1.04082      .   S
    C246   O451      1.04082      .   S
    C49    O452      0.54383      .   S
    C146   O452      0.54383  1_455   S
    C48    O453      0.54392      .   S
    C147   O453      0.54392      .   S
    C237   O454      0.63934      .   S
    C161   O454      0.63934      .   S
    C236   O455      0.63935      .   S
    C160   O455      0.63935      .   S
    C203   O456      0.86677      .   S
    C155   O456      0.86677      .   S
    C203   O457      0.86824      .   S
    C153   O457      0.86824      .   S
    C202   O458      0.86678      .   S
    C154   O458      0.86678      .   S
    C202   O459      0.86826      .   S
    C152   O459      0.86826      .   S
    C51    O460      0.54466  1_655   S
    C148   O460      0.54466      .   S
    C50    O461      0.54476      .   S
    C149   O461      0.54476      .   S
    C146   O462      0.70560      .   S
    C148   O462      0.70560      .   S
    C146   O463      0.69272      .   S
    C144   O463      0.69272      .   S
    C147   O464      0.70560      .   S
    C149   O464      0.70560      .   S
    C147   O465      0.69272      .   S
    C145   O465      0.69272      .   S
    C148   O466      0.69721      .   S
    C150   O466      0.69721      .   S
    C149   O467      0.69721      .   S
    C151   O467      0.69721      .   S
    C233   O468      0.63539      .   S
    C143   O468      0.63539      .   S
    C232   O469      0.63540      .   S
    C142   O469      0.63540      .   S
    C122   O470      0.69700      .   S
    C128   O470      0.69700      .   S
    C122   O471      0.86829      .   S
    C198   O471      0.86829      .   S
    C123   O472      0.69700      .   S
    C129   O472      0.69700      .   S
    C123   O473      0.86829      .   S
    C199   O473      0.86829      .   S
    C145   O474      0.73824      .   S
    C143   O474      0.73824      .   S
    C145   O475      0.86430      .   S
    C201   O475      0.86430      .   S
    C144   O476      0.73824      .   S
    C142   O476      0.73824      .   S
    C144   O477      0.86425      .   S
    C200   O477      0.86425      .   S
    C143   O478      0.64104      .   S
    C243   O478      0.64104      .   S
    C142   O479      0.64105      .   S
    C242   O479      0.64105      .   S
    C160   O480      0.73841      .   S
    C154   O480      0.73841  1_565   S
    C160   O481      0.63925      .   S
    C238   O481      0.63925      .   S
    C161   O482      0.73840      .   S
    C155   O482      0.73840  1_565   S
    C161   O483      0.63928      .   S
    C239   O483      0.63928      .   S
    C151   O484      0.72278      .   S
    C153   O484      0.72278      .   S
    C151   O485      0.86780      .   S
    C201   O485      0.86780      .   S
    C150   O486      0.72289      .   S
    C152   O486      0.72289      .   S
    C150   O487      0.86778      .   S
    C200   O487      0.86778      .   S
    C155   O488      0.69309      .   S
    C157   O488      0.69309      .   S
    C154   O489      0.69304      .   S
    C156   O489      0.69304      .   S
    C153   O490      0.69698      .   S
    C159   O490      0.69698      .   S
    C152   O491      0.69697      .   S
    C158   O491      0.69697      .   S
    C38    O492      0.54438      .   S
    C128   O492      0.54438      .   S
    C39    O493      0.54422      .   S
    C129   O493      0.54422      .   S
    C243   O494      1.02652      .   S
    C7     O494      1.02652      .   S
    C242   O495      1.02655      .   S
    C6     O495      1.02655      .   S
    C7     O496      1.04043      .   S
    C239   O496      1.04043      .   S
    C7     O497      1.03537      .   S
    C215   O497      1.03537      .   S
    C7     O498      1.05649      .   S
    C245   O498      1.05649      .   S
    C6     O499      1.04039      .   S
    C238   O499      1.04039      .   S
    C6     O500      1.03535      .   S
    C214   O500      1.03535      .   S
    C6     O501      1.05638      .   S
    C244   O501      1.05638      .   S
    C128   O502      0.70473      .   S
    C126   O502      0.70473      .   S
    C129   O503      0.70473      .   S
    C127   O503      0.70473      .   S
    C199   O504      0.86685      .   S
    C125   O504      0.86685      .   S
    C198   O505      0.86684      .   S
    C124   O505      0.86684      .   S
    C247   O506      0.63933      .   S
    C191   O506      0.63933      .   S
    C246   O507      0.63931      .   S
    C190   O507      0.63931      .   S
    C156   O508      0.70477      .   S
    C158   O508      0.70477      .   S
    C156   O509      0.54333      .   S
    C52    O509      0.54333      .   S
    C157   O510      0.70475      .   S
    C159   O510      0.70475      .   S
    C157   O511      0.54318      .   S
    C53    O511      0.54318      .   S
    C158   O512      0.54423      .   S
    C54    O512      0.54423      .   S
    C159   O513      0.54423      .   S
    C55    O513      0.54423      .   S
    C62    O514      0.54467      .   S
    C170   O514      0.54467      .   S
    C63    O515      0.54483      .   S
    C171   O515      0.54483      .   S
    C215   O516      0.67520      .   S
    C171   O516      0.67520      .   S
    C215   O517      0.67529      .   S
    C163   O517      0.67529      .   S
    C214   O518      0.67520      .   S
    C170   O518      0.67520      .   S
    C214   O519      0.67528      .   S
    C162   O519      0.67528      .   S
    C56    O520      0.54436      .   S
    C162   O520      0.54436      .   S
    C57    O521      0.54435      .   S
    C163   O521      0.54435      .   S
    C171   O522      0.69419      .   S
    C169   O522      0.69419      .   S
    C170   O523      0.69418      .   S
    C168   O523      0.69418      .   S
    C162   O524      0.69392      .   S
    C164   O524      0.69392      .   S
    C163   O525      0.69391      .   S
    C165   O525      0.69391      .   S
    C127   O526      0.69306      .   S
    C125   O526      0.69306      .   S
    C127   O527      0.54325      .   S
    C36    O527      0.54325  1_455   S
    C126   O528      0.69307      .   S
    C124   O528      0.69307      .   S
    C126   O529      0.54334      .   S
    C37    O529      0.54334      .   S
    C190   O530      0.63928      .   S
    C244   O530      0.63928      .   S
    C191   O531      0.63929      .   S
    C245   O531      0.63929      .   S
    C169   O532      0.54368      .   S
    C61    O532      0.54368      .   S
    C169   O533      0.70345      .   S
    C167   O533      0.70345      .   S
    C168   O534      0.54368      .   S
    C60    O534      0.54368      .   S
    C168   O535      0.70344      .   S
    C166   O535      0.70344      .   S
    C164   O536      0.70251      .   S
    C166   O536      0.70251      .   S
    C164   O537      0.54311      .   S
    C58    O537      0.54311      .   S
    C165   O538      0.70251      .   S
    C167   O538      0.70251      .   S
    C165   O539      0.54311      .   S
    C59    O539      0.54311      .   S
    C0     O540      1.46486      .   S
    C2     O540      1.46486      .   S
    C1     O541      1.46490      .   S
    C3     O541      1.46490      .   S
    C4     O542      1.46491      .   S
    C6     O542      1.46491      .   S
    C5     O543      1.46481      .   S
    C7     O543      1.46481      .   S
