# CIF file generated by openbabel 2.4.90, see http://openbabel.sf.net
data_I
_chemical_name_common ''
_cell_length_a 13.172
_cell_length_b 13.948
_cell_length_c 16.991
_cell_angle_alpha 90.05
_cell_angle_beta 90.016
_cell_angle_gamma 90.246
_space_group_name_H-M_alt 'P 1'
_space_group_name_Hall 'P 1'
loop_
    _symmetry_equiv_pos_as_xyz
    x,y,z
loop_
    _atom_site_label
    _atom_site_type_symbol
    _atom_site_fract_x
    _atom_site_fract_y
    _atom_site_fract_z
    _atom_site_occupancy
    Zr0     Zr   0.42612   0.97961   0.40648   1.000
    Zr1     Zr   0.47619   0.90842   0.07322   1.000
    Zr2     Zr   0.57406   0.52009   0.90666   1.000
    Zr3     Zr   0.52398   0.59159   0.57310   1.000
    Zr4     Zr   0.92518   0.02009   0.09364   1.000
    Zr5     Zr   0.97779   0.09148   0.42671   1.000
    Zr6     Zr   0.07504   0.48014   0.59354   1.000
    Zr7     Zr   0.02236   0.40845   0.92681   1.000
    Zr8     Zr   0.57391   0.02037   0.59351   1.000
    Zr9     Zr   0.52384   0.09156   0.92677   1.000
    Zr10    Zr   0.42596   0.47989   0.09333   1.000
    Zr11    Zr   0.47604   0.40839   0.42689   1.000
    Zr12    Zr   0.07485   0.97989   0.90635   1.000
    Zr13    Zr   0.02223   0.90850   0.57328   1.000
    Zr14    Zr   0.92499   0.51984   0.40645   1.000
    Zr15    Zr   0.97767   0.59153   0.07318   1.000
    N16     N    0.20519   0.01876   0.41909   1.000
    O17     O    0.14042   0.97361   0.47589   1.000
    O18     O    0.27742   0.99930   0.41817   1.000
    O19     O    0.12547   0.03966   0.42776   1.000
    N20     N    0.44306   0.46497   0.26798   1.000
    O21     O    0.44577   0.45138   0.20330   1.000
    N22     N    0.29581   0.51906   0.58112   1.000
    O23     O    0.37578   0.53974   0.57241   1.000
    O24     O    0.35965   0.47368   0.52434   1.000
    O25     O    0.22351   0.49972   0.58199   1.000
    N26     N    0.79501   0.48086   0.91922   1.000
    O27     O    0.87474   0.46012   0.92784   1.000
    O28     O    0.72275   0.50029   0.91834   1.000
    O29     O    0.85966   0.52611   0.97601   1.000
    N30     N    0.01638   0.78521   0.99935   1.000
    O31     O    0.98558   0.87122   0.03781   1.000
    O32     O    0.00196   0.72450   0.02912   1.000
    O33     O    0.03294   0.85677   0.97231   1.000
    N34     N    0.70443   0.98119   0.08137   1.000
    O35     O    0.77669   0.00059   0.08225   1.000
    O36     O    0.64043   0.02649   0.02455   1.000
    O37     O    0.62446   0.96035   0.07258   1.000
    N38     N    0.79484   0.98122   0.58089   1.000
    O39     O    0.87456   0.96032   0.57223   1.000
    O40     O    0.85961   0.02637   0.52410   1.000
    O41     O    0.72261   0.00068   0.58182   1.000
    N42     N    0.55696   0.53500   0.73193   1.000
    O43     O    0.55425   0.54860   0.79665   1.000
    N44     N    0.98401   0.71500   0.49930   1.000
    O45     O    0.96732   0.64330   0.47223   1.000
    O46     O    0.99834   0.77563   0.52912   1.000
    O47     O    0.01465   0.62895   0.53773   1.000
    N48     N    0.29559   0.01879   0.91862   1.000
    O49     O    0.35960   0.97349   0.97544   1.000
    O50     O    0.37556   0.03963   0.92741   1.000
    O51     O    0.22333   0.99940   0.91774   1.000
    N52     N    0.48334   0.78486   0.49923   1.000
    O53     O    0.51390   0.87110   0.53772   1.000
    O54     O    0.46709   0.85642   0.47226   1.000
    O55     O    0.49834   0.72429   0.52900   1.000
    N56     N    0.44500   0.96309   0.23231   1.000
    O57     O    0.44784   0.95028   0.29695   1.000
    N58     N    0.51601   0.71539   0.99895   1.000
    O59     O    0.53250   0.64367   0.97205   1.000
    O60     O    0.48572   0.62912   0.03746   1.000
    O61     O    0.50116   0.77586   0.02882   1.000
    N62     N    0.01600   0.28498   0.50069   1.000
    O63     O    0.00168   0.22435   0.47087   1.000
    O64     O    0.03269   0.35668   0.52776   1.000
    O65     O    0.98536   0.37103   0.46226   1.000
    N66     N    0.48401   0.28459   0.00103   1.000
    O67     O    0.49886   0.22412   0.97116   1.000
    O68     O    0.46752   0.35631   0.02794   1.000
    O69     O    0.51430   0.37086   0.96253   1.000
    N70     N    0.94603   0.03678   0.26747   1.000
    O71     O    0.94853   0.04954   0.20291   1.000
    N72     N    0.98363   0.21477   0.00064   1.000
    O73     O    0.01444   0.12876   0.96218   1.000
    O74     O    0.99806   0.27548   0.97087   1.000
    O75     O    0.96708   0.14321   0.02768   1.000
    N76     N    0.94416   0.53550   0.23216   1.000
    O77     O    0.94660   0.54883   0.29669   1.000
    N78     N    0.20501   0.51912   0.08077   1.000
    O79     O    0.14037   0.47386   0.02398   1.000
    O80     O    0.27727   0.49969   0.08165   1.000
    O81     O    0.12529   0.53986   0.07215   1.000
    N82     N    0.55503   0.03689   0.76767   1.000
    O83     O    0.55219   0.04970   0.70304   1.000
    N84     N    0.70421   0.48093   0.41885   1.000
    O85     O    0.64037   0.52630   0.47562   1.000
    O86     O    0.77651   0.50026   0.41798   1.000
    O87     O    0.62424   0.46024   0.42757   1.000
    N88     N    0.51667   0.21512   0.50075   1.000
    O89     O    0.48612   0.12888   0.46225   1.000
    O90     O    0.53293   0.14356   0.52773   1.000
    O91     O    0.50168   0.27569   0.47099   1.000
    N92     N    0.05400   0.96320   0.73250   1.000
    O93     O    0.05150   0.95044   0.79707   1.000
    N94     N    0.05587   0.46448   0.76777   1.000
    O95     O    0.05343   0.45116   0.70317   1.000
    O96     O    0.95685   0.05518   0.32327   1.000
    O97     O    0.04318   0.94480   0.67670   1.000
    O98     O    0.95544   0.55414   0.17644   1.000
    O99     O    0.45545   0.94463   0.17654   1.000
    O100    O    0.54458   0.05535   0.82344   1.000
    O101    O    0.45397   0.44609   0.32372   1.000
    O102    O    0.04458   0.44584   0.82351   1.000
    O103    O    0.54606   0.55389   0.67623   1.000
loop_
    _geom_bond_atom_site_label_1
    _geom_bond_atom_site_label_2
    _geom_bond_distance
    _geom_bond_site_symmetry_2
    _ccdc_geom_bond_type
    N16    O17       1.43264  1_545   S
    Zr13   O17       2.44507      .   S
    N16    O18       0.99060  1_545   S
    Zr0    O18       1.98900      .   S
    N16    O19       1.10082      .   S
    Zr5    O19       2.07813  1_655   S
    N20    O21       1.11578      .   S
    Zr10   O21       1.92855      .   S
    N22    O23       1.10102      .   S
    Zr3    O23       2.07884      .   S
    N22    O24       1.42912      .   S
    Zr11   O24       2.43559      .   S
    N22    O25       0.98887      .   S
    Zr6    O25       1.98325      .   S
    N26    O27       1.10023      .   S
    Zr7    O27       2.07668  1_455   S
    N26    O28       0.99087      .   S
    Zr2    O28       1.98897      .   S
    N26    O29       1.43127      .   S
    Zr15   O29       2.44093  1_554   S
    N30    O31       1.42620  1_456   S
    Zr4    O31       2.41988  1_545   S
    N30    O32       1.00419  1_556   S
    Zr15   O32       2.02489  1_655   S
    N30    O33       1.11971      .   S
    Zr12   O33       2.12257      .   S
    N34    O35       0.98853  1_565   S
    Zr4    O35       1.98291      .   S
    N34    O36       1.43075  1_565   S
    Zr9    O36       2.44038  1_556   S
    N34    O37       1.10162      .   S
    Zr1    O37       2.08018      .   S
    N38    O39       1.10082      .   S
    Zr13   O39       2.07814  1_455   S
    N38    O40       1.43262  1_565   S
    Zr5    O40       2.44504      .   S
    N38    O41       0.99060  1_565   S
    Zr8    O41       1.98900      .   S
    N42    O43       1.11645      .   S
    Zr2    O43       1.92921      .   S
    N44    O45       1.12127      .   S
    Zr14   O45       2.12456      .   S
    N44    O46       1.00263      .   S
    Zr13   O46       2.02221  1_455   S
    N44    O47       1.42655  1_655   S
    Zr6    O47       2.42017      .   S
    N48    O49       1.43079  1_545   S
    Zr1    O49       2.44044  1_554   S
    N48    O50       1.10164      .   S
    Zr9    O50       2.08019      .   S
    N48    O51       0.98853  1_545   S
    Zr12   O51       1.98290      .   S
    N52    O53       1.42512      .   S
    Zr8    O53       2.41668  1_545   S
    N52    O54       1.12010      .   S
    Zr0    O54       2.12217      .   S
    N52    O55       1.00533      .   S
    Zr3    O55       2.02717      .   S
    N56    O57       1.11351      .   S
    Zr0    O57       1.92678      .   S
    N58    O59       1.12164      .   S
    Zr2    O59       2.12379      .   S
    N58    O60       1.42567  1_556   S
    Zr10   O60       2.41724      .   S
    N58    O61       1.00392  1_556   S
    Zr1    O61       2.02452      .   S
    N62    O63       1.00262      .   S
    Zr5    O63       2.02219  1_655   S
    N62    O64       1.12127      .   S
    Zr6    O64       2.12462      .   S
    N62    O65       1.42653  1_455   S
    Zr14   O65       2.42014      .   S
    N66    O67       1.00395  1_554   S
    Zr9    O67       2.02446      .   S
    N66    O68       1.12166      .   S
    Zr10   O68       2.12381      .   S
    N66    O69       1.42564  1_554   S
    Zr2    O69       2.41722      .   S
    N70    O71       1.11189      .   S
    Zr4    O71       1.92554      .   S
    N72    O73       1.42617  1_654   S
    Zr12   O73       2.41987  1_565   S
    N72    O74       1.00416  1_554   S
    Zr7    O74       2.02486  1_455   S
    N72    O75       1.11974      .   S
    Zr4    O75       2.12259      .   S
    N76    O77       1.11241      .   S
    Zr14   O77       1.92952      .   S
    N78    O79       1.43126      .   S
    Zr7    O79       2.44091  1_556   S
    N78    O80       0.99088      .   S
    Zr10   O80       1.98898      .   S
    N78    O81       1.10023      .   S
    Zr15   O81       2.07668  1_655   S
    N82    O83       1.11347      .   S
    Zr8    O83       1.92673      .   S
    N84    O85       1.42905      .   S
    Zr3    O85       2.43584      .   S
    N84    O86       0.98888      .   S
    Zr14   O86       1.98326      .   S
    N84    O87       1.10104      .   S
    Zr11   O87       2.07881      .   S
    N88    O89       1.42518      .   S
    Zr0    O89       2.41652  1_565   S
    N88    O90       1.12016      .   S
    Zr8    O90       2.12225      .   S
    N88    O91       1.00525      .   S
    Zr11   O91       2.02713      .   S
    N92    O93       1.11203      .   S
    Zr12   O93       1.92568      .   S
    N94    O95       1.11350      .   S
    Zr6    O95       1.92738      .   S
    Zr5    O96       1.84887      .   S
    N70    O96       0.99210      .   S
    Zr13   O97       1.84862      .   S
    N92    O97       0.99209      .   S
    Zr15   O98       1.85382      .   S
    N76    O98       0.99301      .   S
    Zr1    O99       1.84707      .   S
    N56    O99       0.99152      .   S
    Zr9    O100      1.84717      .   S
    N82    O100      0.99150      .   S
    Zr11   O101      1.85383      .   S
    N20    O101      0.99371      .   S
    Zr7    O102      1.85435      .   S
    N94    O102      0.99354      .   S
    Zr3    O103      1.85320      .   S
    N42    O103      0.99306      .   S
