# CIF file generated by openbabel 2.4.90, see http://openbabel.sf.net
data_I
_chemical_name_common 'Al3P3O13'
_cell_length_a 9.0205
_cell_length_b 9.026
_cell_length_c 19.517
_cell_angle_alpha 89.999
_cell_angle_beta 89.997
_cell_angle_gamma 68.782
_space_group_name_H-M_alt 'P 1'
_space_group_name_Hall 'P 1'
loop_
    _symmetry_equiv_pos_as_xyz
    x,y,z
loop_
    _atom_site_label
    _atom_site_type_symbol
    _atom_site_fract_x
    _atom_site_fract_y
    _atom_site_fract_z
    _atom_site_occupancy
    Al0     Al   0.30306   0.98032   0.32645   1.000
    Al1     Al   0.16692   0.85640   0.08283   1.000
    Al2     Al   0.20516   0.50124   0.31762   1.000
    Al3     Al   0.19677   0.51941   0.82648   1.000
    Al4     Al   0.33312   0.64347   0.58283   1.000
    Al5     Al   0.29474   0.99842   0.81762   1.000
    Al6     Al   0.69698   0.01945   0.67633   1.000
    Al7     Al   0.83296   0.14339   0.91995   1.000
    Al8     Al   0.79489   0.49849   0.68517   1.000
    Al9     Al   0.80311   0.48035   0.17630   1.000
    Al10    Al   0.66691   0.35631   0.41995   1.000
    Al11    Al   0.70522   0.00127   0.18518   1.000
    P12     P    0.36993   0.66662   0.41968   1.000
    P13     P    0.51250   0.19207   0.31046   1.000
    P14     P    0.49137   0.79571   0.15927   1.000
    P15     P    0.12984   0.83307   0.91969   1.000
    P16     P    0.98737   0.30760   0.81044   1.000
    P17     P    0.00872   0.70414   0.65933   1.000
    P18     P    0.63013   0.33315   0.58311   1.000
    P19     P    0.48754   0.80766   0.69232   1.000
    P20     P    0.50850   0.20404   0.84352   1.000
    P21     P    0.87002   0.16664   0.08309   1.000
    P22     P    0.01254   0.69214   0.19234   1.000
    P23     P    0.99132   0.29566   0.34347   1.000
    O24     O    0.26842   0.92682   0.24162   1.000
    O25     O    0.34355   0.82736   0.38612   1.000
    O26     O    0.41634   0.78108   0.23306   1.000
    O27     O    0.45810   0.05454   0.33072   1.000
    O28     O    0.62245   0.63255   0.15238   1.000
    O29     O    0.25716   0.58961   0.38888   1.000
    O30     O    0.63026   0.14101   0.25031   1.000
    O31     O    0.55418   0.93197   0.15866   1.000
    O32     O    0.36852   0.33895   0.28791   1.000
    O33     O    0.36640   0.82420   0.10328   1.000
    O34     O    0.54493   0.55684   0.40845   1.000
    O35     O    0.33308   0.69481   0.49632   1.000
    O36     O    0.59533   0.23117   0.37287   1.000
    O37     O    0.23160   0.57297   0.74168   1.000
    O38     O    0.15621   0.67225   0.88621   1.000
    O39     O    0.08375   0.71878   0.73312   1.000
    O40     O    0.04169   0.44519   0.83069   1.000
    O41     O    0.87768   0.86730   0.65243   1.000
    O42     O    0.24263   0.90997   0.88882   1.000
    O43     O    0.86969   0.35858   0.75027   1.000
    O44     O    0.94596   0.56786   0.65875   1.000
    O45     O    0.13140   0.16073   0.78791   1.000
    O46     O    0.13369   0.67562   0.60334   1.000
    O47     O    0.95485   0.94284   0.90845   1.000
    O48     O    0.16672   0.80504   0.00000   1.000
    O49     O    0.90453   0.26853   0.87285   1.000
    O50     O    0.73149   0.07292   0.76119   1.000
    O51     O    0.65648   0.17241   0.61666   1.000
    O52     O    0.58350   0.21861   0.76971   1.000
    O53     O    0.54201   0.94513   0.67206   1.000
    O54     O    0.37739   0.36718   0.85039   1.000
    O55     O    0.74294   0.41012   0.61389   1.000
    O56     O    0.36978   0.85873   0.75247   1.000
    O57     O    0.44573   0.06776   0.84416   1.000
    O58     O    0.63147   0.66073   0.71488   1.000
    O59     O    0.63347   0.17564   0.89950   1.000
    O60     O    0.45514   0.44295   0.59434   1.000
    O61     O    0.66695   0.30495   0.50645   1.000
    O62     O    0.40466   0.76864   0.62991   1.000
    O63     O    0.76842   0.42681   0.26112   1.000
    O64     O    0.84360   0.32744   0.11660   1.000
    O65     O    0.91633   0.28105   0.26967   1.000
    O66     O    0.95813   0.55464   0.17205   1.000
    O67     O    0.12240   0.13251   0.35036   1.000
    O68     O    0.75730   0.08962   0.11394   1.000
    O69     O    0.13029   0.64101   0.25248   1.000
    O70     O    0.05407   0.43195   0.34409   1.000
    O71     O    0.86857   0.83900   0.21493   1.000
    O72     O    0.86634   0.32414   0.39945   1.000
    O73     O    0.04502   0.05694   0.09432   1.000
    O74     O    0.83313   0.19475   0.00645   1.000
    O75     O    0.09535   0.73129   0.12994   1.000
loop_
    _geom_bond_atom_site_label_1
    _geom_bond_atom_site_label_2
    _geom_bond_distance
    _geom_bond_site_symmetry_2
    _ccdc_geom_bond_type
    O48    Al1       1.68185      .   S
    O48    P15       1.60334  1_554   S
    O74    P21       1.53344      .   S
    O74    Al7       1.75082  1_554   S
    Al1    O73       1.75932  1_565   S
    Al1    O33       1.76155      .   S
    Al1    O75       1.75076      .   S
    P21    O73       1.54568  1_655   S
    P21    O68       1.54628      .   S
    P21    O64       1.52989      .   S
    O33    P14       1.52350      .   S
    O68    Al11      1.74962      .   S
    O64    Al9       1.74091      .   S
    O75    P22       1.53526      .   S
    O28    P14       1.52466      .   S
    O28    Al9       1.77207      .   S
    O31    P14       1.52910      .   S
    O31    Al11      1.76989  1_565   S
    P14    O26       1.61691      .   S
    O66    Al9       1.75797      .   S
    O66    P22       1.54239  1_655   S
    Al9    O63       1.78374      .   S
    Al11   O71       1.75818  1_545   S
    Al11   O30       1.74549      .   S
    P22    O71       1.54663  1_455   S
    P22    O69       1.53752      .   S
    O26    O24       1.50607      .   S
    O24    Al0       1.78372      .   S
    O30    P13       1.53765      .   S
    O69    Al2       1.74560      .   S
    O63    O65       1.50610      .   S
    O65    P23       1.61689      .   S
    O32    P13       1.54658      .   S
    O32    Al2       1.75810      .   S
    P13    O27       1.54235      .   S
    P13    O36       1.53537      .   S
    Al2    O70       1.76982      .   S
    Al2    O29       1.74971      .   S
    Al0    O27       1.75784  1_565   S
    Al0    O67       1.77199  1_565   S
    Al0    O25       1.74090      .   S
    P23    O70       1.52898  1_655   S
    P23    O67       1.52457  1_655   S
    P23    O72       1.52343      .   S
    O36    Al10      1.75074      .   S
    O25    P12       1.52987      .   S
    O29    P12       1.54629      .   S
    O72    Al10      1.76142      .   S
    O34    P12       1.54583      .   S
    O34    Al10      1.75943      .   S
    P12    O35       1.53358      .   S
    Al10   O61       1.75077      .   S
    O35    Al4       1.75078      .   S
    O61    P18       1.53359      .   S
    Al4    O60       1.75940      .   S
    Al4    O46       1.76146      .   S
    Al4    O62       1.75072      .   S
    P18    O60       1.54583      .   S
    P18    O55       1.54628      .   S
    P18    O51       1.52989      .   S
    O46    P17       1.52346      .   S
    O55    Al8       1.74978      .   S
    O51    Al6       1.74094      .   S
    O62    P19       1.53540      .   S
    O41    P17       1.52458  1_655   S
    O41    Al6       1.77201  1_565   S
    O44    P17       1.52898  1_655   S
    O44    Al8       1.76990      .   S
    P17    O39       1.61688      .   S
    O53    Al6       1.75777  1_565   S
    O53    P19       1.54231      .   S
    Al6    O50       1.78369      .   S
    Al8    O58       1.75812      .   S
    Al8    O43       1.74570      .   S
    P19    O58       1.54660      .   S
    P19    O56       1.53764      .   S
    O39    O37       1.50609      .   S
    O37    Al3       1.78374      .   S
    O43    P16       1.53760      .   S
    O56    Al5       1.74548      .   S
    O50    O52       1.50612      .   S
    O52    P20       1.61692      .   S
    O45    P16       1.54659  1_455   S
    O45    Al5       1.75813  1_545   S
    P16    O40       1.54240  1_655   S
    P16    O49       1.53528      .   S
    Al5    O57       1.76989  1_565   S
    Al5    O42       1.74956      .   S
    Al3    O40       1.75797      .   S
    Al3    O54       1.77197      .   S
    Al3    O38       1.74092      .   S
    P20    O57       1.52905      .   S
    P20    O54       1.52464      .   S
    P20    O59       1.52349      .   S
    O49    Al7       1.75085      .   S
    O38    P15       1.52992      .   S
    O42    P15       1.54625      .   S
    O59    Al7       1.76155      .   S
    O47    P15       1.54574  1_655   S
    O47    Al7       1.75938  1_565   S
