# CIF file generated by openbabel 2.4.90, see http://openbabel.sf.net
data_I
_chemical_name_common ''
_cell_length_a 14.816
_cell_length_b 14.822
_cell_length_c 14.809
_cell_angle_alpha 109.433
_cell_angle_beta 109.37
_cell_angle_gamma 109.348
_space_group_name_H-M_alt 'P 1'
_space_group_name_Hall 'P 1'
loop_
    _symmetry_equiv_pos_as_xyz
    x,y,z
loop_
    _atom_site_label
    _atom_site_type_symbol
    _atom_site_fract_x
    _atom_site_fract_y
    _atom_site_fract_z
    _atom_site_occupancy
    Lv0     Lv   0.35785   0.00029   0.61458   1.000
    Lv1     Lv   0.74203   0.38531   0.38590   1.000
    Lv2     Lv   0.00139   0.61529   0.35912   1.000
    Lv3     Lv   0.25414   0.64155   0.64077   1.000
    Lv4     Lv   0.99954   0.35714   0.61584   1.000
    Lv5     Lv   0.61617   0.00052   0.35784   1.000
    Lv6     Lv   0.35740   0.61603   0.99973   1.000
    Lv7     Lv   0.38489   0.38566   0.74472   1.000
    Lv8     Lv   0.64238   0.64196   0.25600   1.000
    Lv9     Lv   0.64162   0.25615   0.64308   1.000
    Lv10    Lv   0.38616   0.74469   0.38546   1.000
    Lv11    Lv   0.61934   0.37061   0.99027   1.000
