# CIF file generated by openbabel 2.4.90, see http://openbabel.sf.net
data_I
_chemical_name_common ''
_cell_length_a 14.816
_cell_length_b 14.822
_cell_length_c 14.809
_cell_angle_alpha 109.433
_cell_angle_beta 109.37
_cell_angle_gamma 109.348
_space_group_name_H-M_alt 'P 1'
_space_group_name_Hall 'P 1'
loop_
    _symmetry_equiv_pos_as_xyz
    x,y,z
loop_
    _atom_site_label
    _atom_site_type_symbol
    _atom_site_fract_x
    _atom_site_fract_y
    _atom_site_fract_z
    _atom_site_occupancy
    Zr0     Zr   0.75167   0.50086   0.25321   1.000
    Zr1     Zr   0.24861   0.50026   0.75023   1.000
    Zr2     Zr   0.25020   0.75051   0.49918   1.000
    Zr3     Zr   0.75022   0.24988   0.50158   1.000
    Zr4     Zr   0.50112   0.75140   0.24932   1.000
    Zr5     Zr   0.49892   0.24948   0.75103   1.000
    N6      N    0.35785   0.00029   0.61458   1.000
    O7      O    0.39795   0.08563   0.65802   1.000
    O8      O    0.31286   0.91482   0.57125   1.000
    N9      N    0.74203   0.38531   0.38590   1.000
    O10     O    0.74111   0.42896   0.34460   1.000
    O11     O    0.74094   0.34299   0.42968   1.000
    N12     N    0.00139   0.61529   0.35912   1.000
    O13     O    0.91579   0.57216   0.31471   1.000
    O14     O    0.08651   0.65796   0.39872   1.000
    N15     N    0.25414   0.64155   0.64077   1.000
    O16     O    0.25732   0.68699   0.60047   1.000
    O17     O    0.25666   0.60125   0.68629   1.000
    N18     N    0.99954   0.35714   0.61584   1.000
    O19     O    0.08492   0.39793   0.65850   1.000
    O20     O    0.91424   0.31216   0.57342   1.000
    N21     N    0.61617   0.00052   0.35784   1.000
    O22     O    0.57361   0.91534   0.31243   1.000
    O23     O    0.65864   0.08604   0.39896   1.000
    N24     N    0.35740   0.61603   0.99973   1.000
    O25     O    0.39852   0.65901   0.08534   1.000
    O26     O    0.31195   0.57303   0.91442   1.000
    N27     N    0.38489   0.38566   0.74472   1.000
    O28     O    0.34182   0.42845   0.74200   1.000
    O29     O    0.42732   0.34243   0.74207   1.000
    N30     N    0.64238   0.64196   0.25600   1.000
    O31     O    0.60212   0.68747   0.25810   1.000
    O32     O    0.68785   0.60170   0.25936   1.000
    N33     N    0.64162   0.25615   0.64308   1.000
    O34     O    0.68696   0.25864   0.60289   1.000
    O35     O    0.60083   0.25842   0.68819   1.000
    N36     N    0.38616   0.74469   0.38546   1.000
    O37     O    0.34338   0.74215   0.42811   1.000
    O38     O    0.42944   0.74282   0.34273   1.000
    N39     N    0.61934   0.37061   0.99027   1.000
    O40     O    0.57395   0.31923   0.91032   1.000
    O41     O    0.66103   0.40519   0.08215   1.000
loop_
    _geom_bond_atom_site_label_1
    _geom_bond_atom_site_label_2
    _geom_bond_distance
    _geom_bond_site_symmetry_2
    _ccdc_geom_bond_type
    N6     O7        1.03637      .   S
    Zr5    O7        2.00823      .   S
    N6     O8        1.03768  1_545   S
    Zr2    O8        2.01170      .   S
    N9     O10       1.02781      .   S
    Zr0    O10       1.99538      .   S
    N9     O11       1.04160      .   S
    Zr3    O11       2.01583      .   S
    N12    O13       1.03888  1_455   S
    Zr0    O13       2.01173      .   S
    N12    O14       1.03366      .   S
    Zr2    O14       2.00533      .   S
    N15    O16       1.03777      .   S
    Zr2    O16       2.01197      .   S
    N15    O17       1.03867      .   S
    Zr1    O17       2.01280      .   S
    N18    O19       1.03634  1_655   S
    Zr1    O19       2.00833      .   S
    N18    O20       1.03563      .   S
    Zr3    O20       2.00871      .   S
    N21    O22       1.03448  1_545   S
    Zr4    O22       2.00638      .   S
    N21    O23       1.03781      .   S
    Zr3    O23       2.01028      .   S
    N24    O25       1.03795  1_556   S
    Zr4    O25       2.01059      .   S
    N24    O26       1.03497      .   S
    Zr1    O26       2.00670      .   S
    N27    O28       1.03888      .   S
    Zr1    O28       2.01353      .   S
    N27    O29       1.03623      .   S
    Zr5    O29       2.00941      .   S
    N30    O31       1.03761      .   S
    Zr4    O31       2.01168      .   S
    N30    O32       1.03751      .   S
    Zr0    O32       2.00976      .   S
    N33    O34       1.03462      .   S
    Zr3    O34       2.00742      .   S
    N33    O35       1.03870      .   S
    Zr5    O35       2.01117      .   S
    N36    O37       1.03321      .   S
    Zr2    O37       2.00475      .   S
    N36    O38       1.04020      .   S
    Zr4    O38       2.01474      .   S
    N39    O40       0.98315      .   S
    Zr5    O40       1.93524      .   S
    N39    O41       1.12441  1_556   S
    Zr0    O41       2.07918      .   S
