# CIF file generated by openbabel 2.4.90, see http://openbabel.sf.net
data_I
_chemical_name_common ''
_cell_length_a 21.11
_cell_length_b 17.853
_cell_length_c 17.853
_cell_angle_alpha 119.977
_cell_angle_beta 89.995
_cell_angle_gamma 89.962
_space_group_name_H-M_alt 'P 1'
_space_group_name_Hall 'P 1'
loop_
    _symmetry_equiv_pos_as_xyz
    x,y,z
loop_
    _atom_site_label
    _atom_site_type_symbol
    _atom_site_fract_x
    _atom_site_fract_y
    _atom_site_fract_z
    _atom_site_occupancy
    Zn0     Zn   0.94177   0.54730   0.07787   1.000
    Zn1     Zn   0.27516   0.53068   0.45270   1.000
    Zn2     Zn   0.77515   0.53074   0.45275   1.000
    Zn3     Zn   0.10850   0.92225   0.46953   1.000
    Zn4     Zn   0.60849   0.92226   0.46957   1.000
    Zn5     Zn   0.19183   0.45265   0.92205   1.000
    Zn6     Zn   0.69183   0.45266   0.92207   1.000
    Zn7     Zn   0.02515   0.46938   0.54718   1.000
    Zn8     Zn   0.52513   0.46937   0.54719   1.000
    Zn9     Zn   0.35847   0.07785   0.53059   1.000
    Zn10    Zn   0.85845   0.07787   0.53060   1.000
    Zn11    Zn   0.44178   0.54725   0.07780   1.000
    C12     C    0.33934   0.46478   0.94900   1.000
    C13     C    0.83933   0.46480   0.94904   1.000
    C14     C    0.17267   0.48411   0.53513   1.000
    C15     C    0.67266   0.48416   0.53510   1.000
    C16     C    0.00597   0.05105   0.51581   1.000
    C17     C    0.50597   0.05107   0.51585   1.000
    C18     C    0.08930   0.53517   0.05090   1.000
    C19     C    0.58929   0.53513   0.05094   1.000
    C20     C    0.42266   0.51588   0.46472   1.000
    C21     C    0.92265   0.51594   0.46476   1.000
    C22     C    0.25602   0.94907   0.48427   1.000
    C23     C    0.75601   0.94909   0.48432   1.000
    Cl24    Cl   0.44873   0.46162   0.13519   1.000
    Cl25    Cl   0.94875   0.46169   0.13520   1.000
    Cl26    Cl   0.28197   0.67358   0.53820   1.000
    Cl27    Cl   0.78193   0.67364   0.53827   1.000
    Cl28    Cl   0.11541   0.86493   0.32660   1.000
    Cl29    Cl   0.61542   0.86492   0.32665   1.000
    Cl30    Cl   0.19870   0.53815   0.86459   1.000
    Cl31    Cl   0.69866   0.53817   0.86462   1.000
    Cl32    Cl   0.03200   0.32647   0.46150   1.000
    Cl33    Cl   0.53201   0.32647   0.46159   1.000
    Cl34    Cl   0.36541   0.13512   0.67300   1.000
    Cl35    Cl   0.86543   0.13515   0.67350   1.000
    O36     O    0.34137   0.51889   0.03002   1.000
    O37     O    0.84136   0.51891   0.03000   1.000
    O38     O    0.29181   0.41937   0.90874   1.000
    O39     O    0.79180   0.41940   0.90871   1.000
    O40     O    0.17474   0.51117   0.48115   1.000
    O41     O    0.67472   0.51120   0.48117   1.000
    O42     O    0.12509   0.48896   0.58042   1.000
    O43     O    0.62508   0.48901   0.58045   1.000
    O44     O    0.00809   0.97012   0.48901   1.000
    O45     O    0.50809   0.97014   0.48904   1.000
    O46     O    0.45840   0.09140   0.51075   1.000
    O47     O    0.95838   0.09137   0.51069   1.000
    O48     O    0.09140   0.48110   0.96993   1.000
    O49     O    0.59139   0.48108   0.96990   1.000
    O50     O    0.04172   0.58058   0.09125   1.000
    O51     O    0.54171   0.58052   0.09130   1.000
    O52     O    0.42472   0.48898   0.51882   1.000
    O53     O    0.92471   0.48902   0.51883   1.000
    O54     O    0.37510   0.51090   0.41930   1.000
    O55     O    0.87509   0.51101   0.41941   1.000
    O56     O    0.25807   0.03002   0.51116   1.000
    O57     O    0.75806   0.03005   0.51120   1.000
    O58     O    0.20847   0.90873   0.48931   1.000
    O59     O    0.70846   0.90877   0.48940   1.000
    Ts60    Ts   0.94481   0.53460   0.03383   1.000
    Ts61    Ts   0.93513   0.59080   0.10502   1.000
    Ts62    Ts   0.27820   0.49931   0.46538   1.000
    Ts63    Ts   0.26855   0.51432   0.40920   1.000
    Ts64    Ts   0.77819   0.49937   0.46542   1.000
    Ts65    Ts   0.76854   0.51437   0.40925   1.000
    Ts66    Ts   0.11152   0.96628   0.50086   1.000
    Ts67    Ts   0.10188   0.89508   0.48586   1.000
    Ts68    Ts   0.61150   0.96629   0.50090   1.000
    Ts69    Ts   0.60186   0.89509   0.48590   1.000
    Ts70    Ts   0.18523   0.40917   0.89492   1.000
    Ts71    Ts   0.19485   0.46534   0.96609   1.000
    Ts72    Ts   0.68522   0.40918   0.89494   1.000
    Ts73    Ts   0.69485   0.46534   0.96611   1.000
    Ts74    Ts   0.01851   0.48573   0.59069   1.000
    Ts75    Ts   0.02818   0.50074   0.53449   1.000
    Ts76    Ts   0.51849   0.48572   0.59070   1.000
    Ts77    Ts   0.52816   0.50073   0.53449   1.000
    Ts78    Ts   0.35184   0.10502   0.51424   1.000
    Ts79    Ts   0.36152   0.03382   0.49924   1.000
    Ts80    Ts   0.85182   0.10504   0.51425   1.000
    Ts81    Ts   0.86150   0.03384   0.49925   1.000
    Ts82    Ts   0.44482   0.53456   0.03378   1.000
    Ts83    Ts   0.43514   0.59075   0.10498   1.000
    Og84    Og   0.35891   0.46066   0.93022   1.000
    Og85    Og   0.85890   0.46068   0.93025   1.000
    Og86    Og   0.19226   0.46946   0.53925   1.000
    Og87    Og   0.69224   0.46951   0.53923   1.000
    Og88    Og   0.02553   0.06985   0.53047   1.000
    Og89    Og   0.52553   0.06986   0.53051   1.000
    Og90    Og   0.10886   0.53928   0.06969   1.000
    Og91    Og   0.60886   0.53925   0.06972   1.000
    Og92    Og   0.44222   0.53054   0.46060   1.000
    Og93    Og   0.94222   0.53059   0.46063   1.000
    Og94    Og   0.27560   0.93027   0.46960   1.000
    Og95    Og   0.77558   0.93030   0.46964   1.000
loop_
    _geom_bond_atom_site_label_1
    _geom_bond_atom_site_label_2
    _geom_bond_distance
    _geom_bond_site_symmetry_2
    _ccdc_geom_bond_type
    O37    Zn0       2.24704      .   S
    O37    C13       1.27629  1_554   S
    O36    Zn11      2.24663      .   S
    O36    C12       1.27712  1_554   S
    C18    O50       1.26494      .   S
    C18    O48       1.27630  1_554   S
    C19    O51       1.26490      .   S
    C19    O49       1.27717  1_554   S
    Zn11   O51       2.17246      .   S
    Zn11   Cl24      2.23017      .   S
    Zn0    O50       2.17310  1_655   S
    Zn0    Cl25      2.22900      .   S
    Cl28   Zn3       2.22937      .   S
    Cl29   Zn4       2.22919      .   S
    O54    Zn1       2.17257      .   S
    O54    C20       1.26545      .   S
    O55    Zn2       2.17232      .   S
    O55    C21       1.26498      .   S
    Zn1    O40       2.24745      .   S
    Zn1    Cl26      2.22897      .   S
    Zn2    O41       2.24745      .   S
    Zn2    Cl27      2.22893      .   S
    Cl32   Zn7       2.22920      .   S
    Cl33   Zn8       2.22906      .   S
    C20    O52       1.27630      .   S
    C21    O53       1.27615      .   S
    Zn3    O44       2.24593      .   S
    Zn3    O58       2.17287      .   S
    Zn4    O45       2.24592      .   S
    Zn4    O59       2.17298      .   S
    O40    C14       1.27634      .   S
    O41    C15       1.27539      .   S
    C22    O58       1.26486      .   S
    C22    O56       1.27591  1_565   S
    C23    O59       1.26491      .   S
    C23    O57       1.27589  1_565   S
    O44    C16       1.27584  1_565   S
    O45    C17       1.27584  1_565   S
    O47    C16       1.26524  1_655   S
    O47    Zn10      2.17264      .   S
    O46    C17       1.26484      .   S
    O46    Zn9       2.17256      .   S
    O56    Zn9       2.24669      .   S
    O57    Zn10      2.24666      .   S
    O52    Zn8       2.24683      .   S
    O53    Zn7       2.24734  1_655   S
    Zn9    Cl34      2.22116      .   S
    Zn10   Cl35      2.22918      .   S
    C15    O43       1.26553      .   S
    C14    O42       1.26489      .   S
    Zn7    O42       2.17246      .   S
    Zn8    O43       2.17254      .   S
    Cl30   Zn5       2.22891      .   S
    Cl31   Zn6       2.22895      .   S
    O39    Zn6       2.17266      .   S
    O39    C13       1.26495      .   S
    O38    Zn5       2.17268      .   S
    O38    C12       1.26467      .   S
    Zn5    O48       2.24684      .   S
    Zn6    O49       2.24655      .   S
    Zn0    Ts60      0.70401      .   S
    Zn0    Ts61      0.69377      .   S
    Zn1    Ts62      0.70409      .   S
    Zn1    Ts63      0.69374      .   S
    Zn2    Ts64      0.70411      .   S
    Zn2    Ts65      0.69376      .   S
    Zn3    Ts66      0.70399      .   S
    Zn3    Ts67      0.69372      .   S
    Zn4    Ts68      0.70398      .   S
    Zn4    Ts69      0.69370      .   S
    Zn5    Ts70      0.69354      .   S
    Zn5    Ts71      0.70405      .   S
    Zn6    Ts72      0.69354      .   S
    Zn6    Ts73      0.70401      .   S
    Zn7    Ts74      0.69396      .   S
    Zn7    Ts75      0.70411      .   S
    Zn8    Ts76      0.69397      .   S
    Zn8    Ts77      0.70408      .   S
    Zn9    Ts78      0.69380      .   S
    Zn9    Ts79      0.70401      .   S
    Zn10   Ts80      0.69382      .   S
    Zn10   Ts81      0.70401      .   S
    Zn11   Ts82      0.70356      .   S
    Zn11   Ts83      0.69388      .   S
    C12    Og84      0.51356      .   S
    C13    Og85      0.51376      .   S
    C14    Og86      0.51373      .   S
    C15    Og87      0.51380      .   S
    C16    Og88      0.51375      .   S
    C17    Og89      0.51376      .   S
    C18    Og90      0.51371      .   S
    C19    Og91      0.51372      .   S
    C20    Og92      0.51373      .   S
    C21    Og93      0.51376      .   S
    C22    Og94      0.51379      .   S
    C23    Og95      0.51378      .   S
