# CIF file generated by openbabel 2.4.90, see http://openbabel.sf.net
data_I
_chemical_name_common ''
_cell_length_a 21.11
_cell_length_b 17.853
_cell_length_c 17.853
_cell_angle_alpha 119.977
_cell_angle_beta 89.995
_cell_angle_gamma 89.962
_space_group_name_H-M_alt 'P 1'
_space_group_name_Hall 'P 1'
loop_
    _symmetry_equiv_pos_as_xyz
    x,y,z
loop_
    _atom_site_label
    _atom_site_type_symbol
    _atom_site_fract_x
    _atom_site_fract_y
    _atom_site_fract_z
    _atom_site_occupancy
    Zr0     Zr   0.44178   0.54725   0.07780   1.000
    Zr1     Zr   0.94177   0.54730   0.07787   1.000
    Zr2     Zr   0.27516   0.53068   0.45270   1.000
    Zr3     Zr   0.77515   0.53074   0.45275   1.000
    Zr4     Zr   0.10850   0.92225   0.46953   1.000
    Zr5     Zr   0.60849   0.92226   0.46957   1.000
    Zr6     Zr   0.19183   0.45265   0.92205   1.000
    Zr7     Zr   0.69183   0.45266   0.92207   1.000
    Zr8     Zr   0.02515   0.46938   0.54718   1.000
    Zr9     Zr   0.52513   0.46937   0.54719   1.000
    Zr10    Zr   0.35847   0.07785   0.53059   1.000
    Zr11    Zr   0.85845   0.07787   0.53060   1.000
    Zr12    Zr   0.44873   0.46162   0.13519   1.000
    Zr13    Zr   0.94875   0.46169   0.13520   1.000
    Zr14    Zr   0.28197   0.67358   0.53820   1.000
    Zr15    Zr   0.78193   0.67364   0.53827   1.000
    Zr16    Zr   0.11541   0.86493   0.32660   1.000
    Zr17    Zr   0.61542   0.86492   0.32665   1.000
    Zr18    Zr   0.19870   0.53815   0.86459   1.000
    Zr19    Zr   0.69866   0.53817   0.86462   1.000
    Zr20    Zr   0.03200   0.32647   0.46150   1.000
    Zr21    Zr   0.53201   0.32647   0.46159   1.000
    Zr22    Zr   0.36541   0.13512   0.67300   1.000
    Zr23    Zr   0.86543   0.13515   0.67350   1.000
    O24     O    0.44526   0.50444   0.10650   1.000
    O25     O    0.94526   0.50449   0.10653   1.000
    O26     O    0.11195   0.89359   0.39807   1.000
    O27     O    0.61195   0.89359   0.39811   1.000
    O28     O    0.27856   0.60213   0.49545   1.000
    O29     O    0.77854   0.60219   0.49551   1.000
    O30     O    0.02857   0.39792   0.50434   1.000
    O31     O    0.52857   0.39792   0.50439   1.000
    O32     O    0.36194   0.10649   0.60180   1.000
    O33     O    0.86194   0.10651   0.60205   1.000
    O34     O    0.19527   0.49540   0.89332   1.000
    O35     O    0.69524   0.49541   0.89334   1.000
    N36     N    0.21131   0.53821   0.17049   1.000
    O37     O    0.23828   0.52217   0.27897   1.000
    O38     O    0.20383   0.50495   0.07930   1.000
    N39     N    0.04466   0.63238   0.46168   1.000
    O40     O    0.07161   0.75694   0.47785   1.000
    O41     O    0.03718   0.57440   0.49491   1.000
    N42     N    0.62798   0.17065   0.63234   1.000
    O43     O    0.65495   0.27904   0.75686   1.000
    O44     O    0.62050   0.07948   0.57445   1.000
    N45     N    0.29469   0.36769   0.53820   1.000
    O46     O    0.32161   0.24314   0.52213   1.000
    O47     O    0.28721   0.42565   0.50496   1.000
    N48     N    0.12798   0.17066   0.63229   1.000
    O49     O    0.15496   0.27905   0.75682   1.000
    O50     O    0.12050   0.07948   0.57441   1.000
    N51     N    0.79467   0.36772   0.53823   1.000
    O52     O    0.78719   0.42570   0.50500   1.000
    O53     O    0.82159   0.24317   0.52215   1.000
    N54     N    0.46132   0.46170   0.82939   1.000
    O55     O    0.45383   0.49495   0.92058   1.000
    O56     O    0.48824   0.47780   0.72092   1.000
    N57     N    0.71132   0.53822   0.17050   1.000
    O58     O    0.70384   0.50495   0.07932   1.000
    O59     O    0.73828   0.52220   0.27900   1.000
    N60     N    0.96090   0.46173   0.82939   1.000
    O61     O    0.98804   0.47782   0.72092   1.000
    O62     O    0.95361   0.49499   0.92060   1.000
    N63     N    0.54464   0.63237   0.46168   1.000
    O64     O    0.53715   0.57439   0.49491   1.000
    O65     O    0.57159   0.75694   0.47787   1.000
    N66     N    0.37802   0.82942   0.36772   1.000
    O67     O    0.40492   0.72096   0.24314   1.000
    O68     O    0.37053   0.92061   0.42564   1.000
    N69     N    0.87800   0.82944   0.36772   1.000
    O70     O    0.87051   0.92063   0.42565   1.000
    O71     O    0.90490   0.72099   0.24316   1.000
    C72     C    0.49082   0.03754   0.50521   1.000
    O73     O    0.53623   0.08125   0.54515   1.000
    O74     O    0.44962   0.06108   0.51294   1.000
    O75     O    0.52455   0.99187   0.49226   1.000
    C76     C    0.24086   0.96261   0.49491   1.000
    O77     O    0.28628   0.91888   0.45495   1.000
    O78     O    0.19967   0.93905   0.48717   1.000
    O79     O    0.27456   0.00827   0.50789   1.000
    C80     C    0.99082   0.03752   0.50517   1.000
    O81     O    0.03623   0.08123   0.54511   1.000
    O82     O    0.02456   0.99185   0.49222   1.000
    O83     O    0.94962   0.06107   0.51291   1.000
    C84     C    0.74084   0.96264   0.49497   1.000
    O85     O    0.78626   0.91890   0.45499   1.000
    O86     O    0.69966   0.93908   0.48723   1.000
    O87     O    0.77455   0.00830   0.50794   1.000
    C88     C    0.90749   0.50532   0.46767   1.000
    O89     O    0.95291   0.54524   0.46389   1.000
    O90     O    0.94121   0.49226   0.50034   1.000
    O91     O    0.86630   0.51310   0.45187   1.000
    C92     C    0.40749   0.50525   0.46761   1.000
    O93     O    0.45291   0.54518   0.46386   1.000
    O94     O    0.44121   0.49221   0.50031   1.000
    O95     O    0.36631   0.51302   0.45181   1.000
    C96     C    0.15750   0.49475   0.53223   1.000
    O97     O    0.19122   0.50784   0.49958   1.000
    O98     O    0.11631   0.48696   0.54802   1.000
    O99     O    0.20294   0.45483   0.53600   1.000
    C100    C    0.65749   0.49479   0.53224   1.000
    O101    O    0.70292   0.45487   0.53600   1.000
    O102    O    0.61629   0.48699   0.54803   1.000
    O103    O    0.69121   0.50788   0.49960   1.000
    C104    C    0.57413   0.53224   0.03738   1.000
    O105    O    0.61956   0.53601   0.08109   1.000
    O106    O    0.53294   0.54806   0.06096   1.000
    O107    O    0.60787   0.49956   0.99168   1.000
    C108    C    0.32417   0.46768   0.96259   1.000
    O109    O    0.36959   0.46391   0.91885   1.000
    O110    O    0.28300   0.45185   0.93899   1.000
    O111    O    0.35787   0.50038   0.00825   1.000
    C112    C    0.82416   0.46770   0.96258   1.000
    O113    O    0.86948   0.46394   0.91885   1.000
    O114    O    0.78299   0.45186   0.93899   1.000
    O115    O    0.85786   0.50040   0.00826   1.000
    C116    C    0.07414   0.53228   0.03736   1.000
    O117    O    0.11956   0.53603   0.08107   1.000
    O118    O    0.03294   0.54811   0.06096   1.000
    O119    O    0.10788   0.49958   0.99167   1.000
loop_
    _geom_bond_atom_site_label_1
    _geom_bond_atom_site_label_2
    _geom_bond_distance
    _geom_bond_site_symmetry_2
    _ccdc_geom_bond_type
    Zr0    O24       1.11508      .   S
    Zr12   O24       1.11508      .   S
    Zr1    O25       1.11450      .   S
    Zr13   O25       1.11450      .   S
    Zr16   O26       1.11468      .   S
    Zr4    O26       1.11468      .   S
    Zr17   O27       1.11460      .   S
    Zr5    O27       1.11460      .   S
    Zr2    O28       1.11448      .   S
    Zr14   O28       1.11448      .   S
    Zr3    O29       1.11446      .   S
    Zr15   O29       1.11446      .   S
    Zr20   O30       1.11460      .   S
    Zr8    O30       1.11460      .   S
    Zr21   O31       1.11453      .   S
    Zr9    O31       1.11453      .   S
    Zr10   O32       1.11058      .   S
    Zr22   O32       1.11058      .   S
    Zr11   O33       1.11459      .   S
    Zr23   O33       1.11459      .   S
    Zr18   O34       1.11446      .   S
    Zr6    O34       1.11446      .   S
    Zr19   O35       1.11447      .   S
    Zr7    O35       1.11447      .   S
    N36    O37       2.17049      .   S
    Zr2    O37       3.12712      .   S
    N36    O38       1.43595      .   S
    Zr6    O38       2.48971  1_556   S
    N39    O40       2.17077      .   S
    Zr4    O40       3.12729      .   S
    N39    O41       1.43607      .   S
    Zr8    O41       2.48996      .   S
    N42    O43       2.17110      .   S
    Zr7    O43       3.12735      .   S
    N42    O44       1.43589      .   S
    Zr5    O44       2.48957  1_565   S
    N45    O46       2.17025      .   S
    Zr10   O46       3.12705      .   S
    N45    O47       1.43583      .   S
    Zr2    O47       2.48968      .   S
    N48    O49       2.17126      .   S
    Zr6    O49       3.12746      .   S
    N48    O50       1.43595      .   S
    Zr4    O50       2.48964  1_565   S
    N51    O52       1.43594      .   S
    Zr3    O52       2.48982      .   S
    N51    O53       2.17031      .   S
    Zr11   O53       3.12713      .   S
    N54    O55       1.43596      .   S
    Zr0    O55       2.48903  1_554   S
    N54    O56       2.17069      .   S
    Zr9    O56       3.12768      .   S
    N57    O58       1.43592      .   S
    Zr7    O58       2.48964  1_556   S
    N57    O59       2.17051      .   S
    Zr3    O59       3.12717      .   S
    N60    O61       2.17187      .   S
    Zr8    O61       3.12879  1_455   S
    N60    O62       1.43572      .   S
    Zr1    O62       2.48948  1_554   S
    N63    O64       1.43609      .   S
    Zr9    O64       2.48995      .   S
    N63    O65       2.17081      .   S
    Zr5    O65       3.12730      .   S
    N66    O67       2.17096      .   S
    Zr0    O67       3.12806      .   S
    N66    O68       1.43603      .   S
    Zr10   O68       2.48975  1_545   S
    N69    O70       1.43601      .   S
    Zr11   O70       2.48974  1_545   S
    N69    O71       2.17078      .   S
    Zr1    O71       3.12753      .   S
    C72    O73       1.21715      .   S
    N42    O73       2.49876      .   S
    C72    O74       0.94522      .   S
    Zr10   O74       1.94853      .   S
    C72    O75       1.01793  1_545   S
    Zr5    O75       2.08372      .   S
    C76    O77       1.21669      .   S
    N66    O77       2.49734      .   S
    C76    O78       0.94567      .   S
    Zr4    O78       1.94930      .   S
    C76    O79       1.01818  1_565   S
    Zr10   O79       2.08439      .   S
    C80    O81       1.21721  1_655   S
    N48    O81       2.49880      .   S
    C80    O82       1.01797  1_645   S
    Zr4    O82       2.08378      .   S
    C80    O83       0.94540      .   S
    Zr11   O83       1.94877      .   S
    C84    O85       1.21674      .   S
    N69    O85       2.49749      .   S
    C84    O86       0.94567      .   S
    Zr5    O86       1.94935      .   S
    C84    O87       1.01816  1_565   S
    Zr11   O87       2.08435      .   S
    C88    O89       1.21680      .   S
    N39    O89       2.49776  1_455   S
    C88    O90       1.01840      .   S
    Zr8    O90       2.08491  1_455   S
    C88    O91       0.94530      .   S
    Zr3    O91       1.94848      .   S
    C92    O93       1.21674      .   S
    N63    O93       2.49769      .   S
    C92    O94       1.01841      .   S
    Zr9    O94       2.08462      .   S
    C92    O95       0.94532      .   S
    Zr2    O95       1.94849      .   S
    C96    O97       1.01861      .   S
    Zr2    O97       2.08523      .   S
    C96    O98       0.94556      .   S
    Zr8    O98       1.94893      .   S
    C96    O99       1.21625      .   S
    N45    O99       2.49615      .   S
    C100   O101      1.21627      .   S
    N51    O101      2.49634      .   S
    C100   O102      0.94568      .   S
    Zr9    O102      1.94904      .   S
    C100   O103      1.01847      .   S
    Zr3    O103      2.08511      .   S
    C104   O105      1.21694      .   S
    N57    O105      2.49783      .   S
    C104   O106      0.94552      .   S
    Zr0    O106      1.94883      .   S
    C104   O107      1.01832  1_554   S
    Zr7    O107      2.08433      .   S
    C108   O109      1.21686      .   S
    N54    O109      2.49763      .   S
    C108   O110      0.94566      .   S
    Zr6    O110      1.94922      .   S
    C108   O111      1.01812  1_556   S
    Zr0    O111      2.08414      .   S
    C112   O113      1.21511      .   S
    N60    O113      2.49264      .   S
    C112   O114      0.94567      .   S
    Zr7    O114      1.94918      .   S
    C112   O115      1.01824  1_556   S
    Zr1    O115      2.08454      .   S
    C116   O117      1.21689      .   S
    N36    O117      2.49797      .   S
    C116   O118      0.94569      .   S
    Zr1    O118      1.94939  1_655   S
    C116   O119      1.01826  1_554   S
    Zr6    O119      2.08448      .   S
