# CIF file generated by openbabel 2.4.90, see http://openbabel.sf.net
data_I
_chemical_name_common ''
_cell_length_a 21.11
_cell_length_b 17.853
_cell_length_c 17.853
_cell_angle_alpha 119.977
_cell_angle_beta 89.995
_cell_angle_gamma 89.962
_space_group_name_H-M_alt 'P 1'
_space_group_name_Hall 'P 1'
loop_
    _symmetry_equiv_pos_as_xyz
    x,y,z
loop_
    _atom_site_label
    _atom_site_type_symbol
    _atom_site_fract_x
    _atom_site_fract_y
    _atom_site_fract_z
    _atom_site_occupancy
    Zr0     Zr   0.44178   0.54725   0.07780   1.000
    Zr1     Zr   0.94177   0.54730   0.07787   1.000
    Zr2     Zr   0.27516   0.53068   0.45270   1.000
    Zr3     Zr   0.77515   0.53074   0.45275   1.000
    Zr4     Zr   0.10850   0.92225   0.46953   1.000
    Zr5     Zr   0.60849   0.92226   0.46957   1.000
    Zr6     Zr   0.19183   0.45265   0.92205   1.000
    Zr7     Zr   0.69183   0.45266   0.92207   1.000
    Zr8     Zr   0.02515   0.46938   0.54718   1.000
    Zr9     Zr   0.52513   0.46937   0.54719   1.000
    Zr10    Zr   0.35847   0.07785   0.53059   1.000
    Zr11    Zr   0.85845   0.07787   0.53060   1.000
    Zr12    Zr   0.33934   0.46478   0.94900   1.000
    Zr13    Zr   0.83933   0.46480   0.94904   1.000
    Zr14    Zr   0.17267   0.48411   0.53513   1.000
    Zr15    Zr   0.67266   0.48416   0.53510   1.000
    Zr16    Zr   0.00597   0.05105   0.51581   1.000
    Zr17    Zr   0.50597   0.05107   0.51585   1.000
    Zr18    Zr   0.08930   0.53517   0.05090   1.000
    Zr19    Zr   0.58929   0.53513   0.05094   1.000
    Zr20    Zr   0.42266   0.51588   0.46472   1.000
    Zr21    Zr   0.92265   0.51594   0.46476   1.000
    Zr22    Zr   0.25602   0.94907   0.48427   1.000
    Zr23    Zr   0.75601   0.94909   0.48432   1.000
    Zr24    Zr   0.44873   0.46162   0.13519   1.000
    Zr25    Zr   0.94875   0.46169   0.13520   1.000
    Zr26    Zr   0.28197   0.67358   0.53820   1.000
    Zr27    Zr   0.78193   0.67364   0.53827   1.000
    Zr28    Zr   0.11541   0.86493   0.32660   1.000
    Zr29    Zr   0.61542   0.86492   0.32665   1.000
    Zr30    Zr   0.19870   0.53815   0.86459   1.000
    Zr31    Zr   0.69866   0.53817   0.86462   1.000
    Zr32    Zr   0.03200   0.32647   0.46150   1.000
    Zr33    Zr   0.53201   0.32647   0.46159   1.000
    Zr34    Zr   0.36541   0.13512   0.67300   1.000
    Zr35    Zr   0.86543   0.13515   0.67350   1.000
    Zr36    Zr   0.34137   0.51889   0.03002   1.000
    Zr37    Zr   0.84136   0.51891   0.03000   1.000
    Zr38    Zr   0.29181   0.41937   0.90874   1.000
    Zr39    Zr   0.79180   0.41940   0.90871   1.000
    Zr40    Zr   0.17474   0.51117   0.48115   1.000
    Zr41    Zr   0.67472   0.51120   0.48117   1.000
    Zr42    Zr   0.12509   0.48896   0.58042   1.000
    Zr43    Zr   0.62508   0.48901   0.58045   1.000
    Zr44    Zr   0.00809   0.97012   0.48901   1.000
    Zr45    Zr   0.50809   0.97014   0.48904   1.000
    Zr46    Zr   0.45840   0.09140   0.51075   1.000
    Zr47    Zr   0.95838   0.09137   0.51069   1.000
    Zr48    Zr   0.09140   0.48110   0.96993   1.000
    Zr49    Zr   0.59139   0.48108   0.96990   1.000
    Zr50    Zr   0.04172   0.58058   0.09125   1.000
    Zr51    Zr   0.54171   0.58052   0.09130   1.000
    Zr52    Zr   0.42472   0.48898   0.51882   1.000
    Zr53    Zr   0.92471   0.48902   0.51883   1.000
    Zr54    Zr   0.37510   0.51090   0.41930   1.000
    Zr55    Zr   0.87509   0.51101   0.41941   1.000
    Zr56    Zr   0.25807   0.03002   0.51116   1.000
    Zr57    Zr   0.75806   0.03005   0.51120   1.000
    Zr58    Zr   0.20847   0.90873   0.48931   1.000
    Zr59    Zr   0.70846   0.90877   0.48940   1.000
    O60     O    0.89156   0.53310   0.05393   1.000
    O61     O    0.84034   0.49185   0.98952   1.000
    O62     O    0.39157   0.53307   0.05391   1.000
    O63     O    0.34035   0.49183   0.98951   1.000
    O64     O    0.06551   0.55788   0.07108   1.000
    O65     O    0.09035   0.50813   0.01041   1.000
    O66     O    0.56550   0.55783   0.07112   1.000
    O67     O    0.59034   0.50811   0.01042   1.000
    O68     O    0.49175   0.56388   0.08455   1.000
    O69     O    0.44526   0.50444   0.10650   1.000
    O70     O    0.99175   0.56394   0.08456   1.000
    O71     O    0.94526   0.50449   0.10653   1.000
    O72     O    0.11195   0.89359   0.39807   1.000
    O73     O    0.61195   0.89359   0.39811   1.000
    O74     O    0.32513   0.52079   0.43600   1.000
    O75     O    0.39888   0.51339   0.44201   1.000
    O76     O    0.82512   0.52088   0.43608   1.000
    O77     O    0.89887   0.51348   0.44208   1.000
    O78     O    0.22495   0.52092   0.46693   1.000
    O79     O    0.27856   0.60213   0.49545   1.000
    O80     O    0.72494   0.52097   0.46696   1.000
    O81     O    0.77854   0.60219   0.49551   1.000
    O82     O    0.02857   0.39792   0.50434   1.000
    O83     O    0.52857   0.39792   0.50439   1.000
    O84     O    0.42369   0.50243   0.49177   1.000
    O85     O    0.92368   0.50248   0.49180   1.000
    O86     O    0.05830   0.94619   0.47927   1.000
    O87     O    0.15848   0.91549   0.47942   1.000
    O88     O    0.55829   0.94620   0.47930   1.000
    O89     O    0.65847   0.91552   0.47948   1.000
    O90     O    0.17370   0.49764   0.50814   1.000
    O91     O    0.67369   0.49768   0.50814   1.000
    O92     O    0.23225   0.92890   0.48679   1.000
    O93     O    0.25705   0.98954   0.49771   1.000
    O94     O    0.73223   0.92893   0.48686   1.000
    O95     O    0.75703   0.98957   0.49776   1.000
    O96     O    0.00704   0.01059   0.50241   1.000
    O97     O    0.50703   0.01060   0.50245   1.000
    O98     O    0.98218   0.07121   0.51325   1.000
    O99     O    0.90842   0.08462   0.52064   1.000
    O100    O    0.48218   0.07124   0.51330   1.000
    O101    O    0.40843   0.08463   0.52067   1.000
    O102    O    0.30827   0.05394   0.52087   1.000
    O103    O    0.80826   0.05396   0.52090   1.000
    O104    O    0.47493   0.47917   0.53300   1.000
    O105    O    0.97493   0.47920   0.53301   1.000
    O106    O    0.36194   0.10649   0.60180   1.000
    O107    O    0.86194   0.10651   0.60205   1.000
    O108    O    0.64887   0.48659   0.55778   1.000
    O109    O    0.14888   0.48654   0.55778   1.000
    O110    O    0.07512   0.47917   0.56380   1.000
    O111    O    0.57510   0.47919   0.56382   1.000
    O112    O    0.19527   0.49540   0.89332   1.000
    O113    O    0.69524   0.49541   0.89334   1.000
    O114    O    0.74181   0.43603   0.91539   1.000
    O115    O    0.81557   0.44210   0.92887   1.000
    O116    O    0.24182   0.43601   0.91539   1.000
    O117    O    0.31557   0.44207   0.92887   1.000
    O118    O    0.14162   0.46687   0.94599   1.000
    O119    O    0.64161   0.46687   0.94598   1.000
    N120    N    0.21131   0.53821   0.17049   1.000
    O121    O    0.23828   0.52217   0.27897   1.000
    O122    O    0.20383   0.50495   0.07930   1.000
    O123    O    0.16498   0.53977   0.12479   1.000
    N124    N    0.04466   0.63238   0.46168   1.000
    O125    O    0.99833   0.58515   0.46012   1.000
    O126    O    0.07161   0.75694   0.47785   1.000
    O127    O    0.03718   0.57440   0.49491   1.000
    N128    N    0.62798   0.17065   0.63234   1.000
    O129    O    0.65495   0.27904   0.75686   1.000
    O130    O    0.58164   0.12495   0.58509   1.000
    O131    O    0.62050   0.07948   0.57445   1.000
    N132    N    0.29469   0.36769   0.53820   1.000
    O133    O    0.32161   0.24314   0.52213   1.000
    O134    O    0.24837   0.41491   0.53976   1.000
    O135    O    0.28721   0.42565   0.50496   1.000
    N136    N    0.12798   0.17066   0.63229   1.000
    O137    O    0.15496   0.27905   0.75682   1.000
    O138    O    0.12050   0.07948   0.57441   1.000
    O139    O    0.08164   0.12495   0.58505   1.000
    N140    N    0.79467   0.36772   0.53823   1.000
    O141    O    0.78719   0.42570   0.50500   1.000
    O142    O    0.82159   0.24317   0.52215   1.000
    O143    O    0.74835   0.41495   0.53977   1.000
    N144    N    0.46132   0.46170   0.82939   1.000
    O145    O    0.41500   0.46015   0.87511   1.000
    O146    O    0.45383   0.49495   0.92058   1.000
    O147    O    0.48824   0.47780   0.72092   1.000
    N148    N    0.71132   0.53822   0.17050   1.000
    O149    O    0.66498   0.53977   0.12481   1.000
    O150    O    0.70384   0.50495   0.07932   1.000
    O151    O    0.73828   0.52220   0.27900   1.000
    N152    N    0.96090   0.46173   0.82939   1.000
    O153    O    0.91479   0.46018   0.87512   1.000
    O154    O    0.98804   0.47782   0.72092   1.000
    O155    O    0.95361   0.49499   0.92060   1.000
    N156    N    0.54464   0.63237   0.46168   1.000
    O157    O    0.53715   0.57439   0.49491   1.000
    O158    O    0.49832   0.58512   0.46011   1.000
    O159    O    0.57159   0.75694   0.47787   1.000
    N160    N    0.37802   0.82942   0.36772   1.000
    O161    O    0.33171   0.87515   0.41499   1.000
    O162    O    0.40492   0.72096   0.24314   1.000
    O163    O    0.37053   0.92061   0.42564   1.000
    N164    N    0.87800   0.82944   0.36772   1.000
    O165    O    0.87051   0.92063   0.42565   1.000
    O166    O    0.83168   0.87517   0.41501   1.000
    O167    O    0.90490   0.72099   0.24316   1.000
loop_
    _geom_bond_atom_site_label_1
    _geom_bond_atom_site_label_2
    _geom_bond_distance
    _geom_bond_site_symmetry_2
    _ccdc_geom_bond_type
    Zr37   O60       1.12352      .   S
    Zr1    O60       1.12352      .   S
    Zr37   O61       0.63815  1_554   S
    Zr13   O61       0.63815      .   S
    Zr36   O62       1.12332      .   S
    Zr0    O62       1.12332      .   S
    Zr36   O63       0.63856  1_554   S
    Zr12   O63       0.63856      .   S
    Zr18   O64       0.63247      .   S
    Zr50   O64       0.63247      .   S
    Zr18   O65       0.63815      .   S
    Zr48   O65       0.63815  1_556   S
    Zr19   O66       0.63245      .   S
    Zr51   O66       0.63245      .   S
    Zr19   O67       0.63859      .   S
    Zr49   O67       0.63859  1_556   S
    Zr0    O68       1.08623      .   S
    Zr51   O68       1.08623      .   S
    Zr0    O69       1.11508      .   S
    Zr24   O69       1.11508      .   S
    Zr1    O70       1.08655      .   S
    Zr50   O70       1.08655  1_455   S
    Zr1    O71       1.11450      .   S
    Zr25   O71       1.11450      .   S
    Zr28   O72       1.11468      .   S
    Zr4    O72       1.11468      .   S
    Zr29   O73       1.11460      .   S
    Zr5    O73       1.11460      .   S
    Zr54   O74       1.08628      .   S
    Zr2    O74       1.08628      .   S
    Zr54   O75       0.63273      .   S
    Zr20   O75       0.63273      .   S
    Zr55   O76       1.08616      .   S
    Zr3    O76       1.08616      .   S
    Zr55   O77       0.63249      .   S
    Zr21   O77       0.63249      .   S
    Zr2    O78       1.12372      .   S
    Zr40   O78       1.12372      .   S
    Zr2    O79       1.11448      .   S
    Zr26   O79       1.11448      .   S
    Zr3    O80       1.12372      .   S
    Zr41   O80       1.12372      .   S
    Zr3    O81       1.11446      .   S
    Zr27   O81       1.11446      .   S
    Zr32   O82       1.11460      .   S
    Zr8    O82       1.11460      .   S
    Zr33   O83       1.11453      .   S
    Zr9    O83       1.11453      .   S
    Zr20   O84       0.63815      .   S
    Zr52   O84       0.63815      .   S
    Zr21   O85       0.63808      .   S
    Zr53   O85       0.63808      .   S
    Zr4    O86       1.12297      .   S
    Zr44   O86       1.12297      .   S
    Zr4    O87       1.08644      .   S
    Zr58   O87       1.08644      .   S
    Zr5    O88       1.12296      .   S
    Zr45   O88       1.12296      .   S
    Zr5    O89       1.08649      .   S
    Zr59   O89       1.08649      .   S
    Zr40   O90       0.63817      .   S
    Zr14   O90       0.63817      .   S
    Zr41   O91       0.63769      .   S
    Zr15   O91       0.63769      .   S
    Zr22   O92       0.63243      .   S
    Zr58   O92       0.63243      .   S
    Zr22   O93       0.63795      .   S
    Zr56   O93       0.63795  1_545   S
    Zr23   O94       0.63246      .   S
    Zr59   O94       0.63246      .   S
    Zr23   O95       0.63794      .   S
    Zr57   O95       0.63794  1_545   S
    Zr44   O96       0.63792  1_565   S
    Zr16   O96       0.63792      .   S
    Zr45   O97       0.63792  1_565   S
    Zr17   O97       0.63792      .   S
    Zr47   O98       0.63262      .   S
    Zr16   O98       0.63262  1_455   S
    Zr47   O99       1.08632      .   S
    Zr11   O99       1.08632      .   S
    Zr46   O100      0.63242      .   S
    Zr17   O100      0.63242      .   S
    Zr46   O101      1.08628      .   S
    Zr10   O101      1.08628      .   S
    Zr56   O102      1.12334      .   S
    Zr10   O102      1.12334      .   S
    Zr57   O103      1.12333      .   S
    Zr11   O103      1.12333      .   S
    Zr52   O104      1.12341      .   S
    Zr9    O104      1.12341      .   S
    Zr53   O105      1.12367      .   S
    Zr8    O105      1.12367  1_455   S
    Zr10   O106      1.11058      .   S
    Zr34   O106      1.11058      .   S
    Zr11   O107      1.11459      .   S
    Zr35   O107      1.11459      .   S
    Zr15   O108      0.63276      .   S
    Zr43   O108      0.63276      .   S
    Zr14   O109      0.63245      .   S
    Zr42   O109      0.63245      .   S
    Zr8    O110      1.08623      .   S
    Zr42   O110      1.08623      .   S
    Zr9    O111      1.08627      .   S
    Zr43   O111      1.08627      .   S
    Zr30   O112      1.11446      .   S
    Zr6    O112      1.11446      .   S
    Zr31   O113      1.11447      .   S
    Zr7    O113      1.11447      .   S
    Zr39   O114      1.08633      .   S
    Zr7    O114      1.08633      .   S
    Zr39   O115      0.63248      .   S
    Zr13   O115      0.63248      .   S
    Zr38   O116      1.08634      .   S
    Zr6    O116      1.08634      .   S
    Zr38   O117      0.63233      .   S
    Zr12   O117      0.63233      .   S
    Zr6    O118      1.12342      .   S
    Zr48   O118      1.12342      .   S
    Zr7    O119      1.12328      .   S
    Zr49   O119      1.12328      .   S
    N120   O121      2.17049      .   S
    Zr2    O121      3.12712      .   S
    N120   O122      1.43595      .   S
    Zr6    O122      2.48971  1_556   S
    N120   O123      1.28300      .   S
    Zr18   O123      2.04722      .   S
    N124   O125      1.28291  1_455   S
    Zr21   O125      2.04714      .   S
    N124   O126      2.17077      .   S
    Zr4    O126      3.12729      .   S
    N124   O127      1.43607      .   S
    Zr8    O127      2.48996      .   S
    N128   O129      2.17110      .   S
    Zr7    O129      3.12735      .   S
    N128   O130      1.28354      .   S
    Zr17   O130      2.04781      .   S
    N128   O131      1.43589      .   S
    Zr5    O131      2.48957  1_565   S
    N132   O133      2.17025      .   S
    Zr10   O133      3.12705      .   S
    N132   O134      1.28183      .   S
    Zr14   O134      2.04602      .   S
    N132   O135      1.43583      .   S
    Zr2    O135      2.48968      .   S
    N136   O137      2.17126      .   S
    Zr6    O137      3.12746      .   S
    N136   O138      1.43595      .   S
    Zr4    O138      2.48964  1_565   S
    N136   O139      1.28351      .   S
    Zr16   O139      2.04779      .   S
    N140   O141      1.43594      .   S
    Zr3    O141      2.48982      .   S
    N140   O142      2.17031      .   S
    Zr11   O142      3.12713      .   S
    N140   O143      1.28200      .   S
    Zr15   O143      2.04629      .   S
    N144   O145      1.28270      .   S
    Zr12   O145      2.04667      .   S
    N144   O146      1.43596      .   S
    Zr0    O146      2.48903  1_554   S
    N144   O147      2.17069      .   S
    Zr9    O147      3.12768      .   S
    N148   O149      1.28282      .   S
    Zr19   O149      2.04705      .   S
    N148   O150      1.43592      .   S
    Zr7    O150      2.48964  1_556   S
    N148   O151      2.17051      .   S
    Zr3    O151      3.12717      .   S
    N152   O153      1.27950      .   S
    Zr13   O153      2.04368      .   S
    N152   O154      2.17187      .   S
    Zr8    O154      3.12879  1_455   S
    N152   O155      1.43572      .   S
    Zr1    O155      2.48948  1_554   S
    N156   O157      1.43609      .   S
    Zr9    O157      2.48995      .   S
    N156   O158      1.28289      .   S
    Zr20   O158      2.04708      .   S
    N156   O159      2.17081      .   S
    Zr5    O159      3.12730      .   S
    N160   O161      1.28259      .   S
    Zr22   O161      2.04690      .   S
    N160   O162      2.17096      .   S
    Zr0    O162      3.12806      .   S
    N160   O163      1.43603      .   S
    Zr10   O163      2.48975  1_545   S
    N164   O165      1.43601      .   S
    Zr11   O165      2.48974  1_545   S
    N164   O166      1.28268      .   S
    Zr23   O166      2.04697      .   S
    N164   O167      2.17078      .   S
    Zr1    O167      3.12753      .   S
