# CIF file generated by openbabel 2.4.90, see http://openbabel.sf.net
data_I
_chemical_name_common ''
_cell_length_a 23.285
_cell_length_b 13.976
_cell_length_c 15.782
_cell_angle_alpha 96.063
_cell_angle_beta 89.996
_cell_angle_gamma 89.977
_space_group_name_H-M_alt 'P 1'
_space_group_name_Hall 'P 1'
loop_
    _symmetry_equiv_pos_as_xyz
    x,y,z
loop_
    _atom_site_label
    _atom_site_type_symbol
    _atom_site_fract_x
    _atom_site_fract_y
    _atom_site_fract_z
    _atom_site_occupancy
    Zn0     Zn   0.54742   0.19675   0.98514   1.000
    Zn1     Zn   0.04785   0.40011   0.00340   1.000
    Zn2     Zn   0.54784   0.40011   0.00340   1.000
    Zn3     Zn   0.29739   0.80324   0.01482   1.000
    Zn4     Zn   0.79738   0.80324   0.01482   1.000
    Zn5     Zn   0.29786   0.59988   0.99656   1.000
    Zn6     Zn   0.79785   0.59988   0.99656   1.000
    Zn7     Zn   0.04742   0.19675   0.98514   1.000
loop_
    _geom_bond_atom_site_label_1
    _geom_bond_atom_site_label_2
    _geom_bond_distance
    _geom_bond_site_symmetry_2
    _ccdc_geom_bond_type
    Zn7    Zn1       2.82628  1_556   S
    Zn0    Zn2       2.82628  1_556   S
    Zn3    Zn5       2.82629  1_554   S
    Zn4    Zn6       2.82629  1_554   S
