# CIF file generated by openbabel 2.4.90, see http://openbabel.sf.net
data_I
_chemical_name_common ''
_cell_length_a 15.976
_cell_length_b 19.736
_cell_length_c 13.545
_cell_angle_alpha 109.661
_cell_angle_beta 105.44
_cell_angle_gamma 94.817
_space_group_name_H-M_alt 'P 1'
_space_group_name_Hall 'P 1'
loop_
    _symmetry_equiv_pos_as_xyz
    x,y,z
loop_
    _atom_site_label
    _atom_site_type_symbol
    _atom_site_fract_x
    _atom_site_fract_y
    _atom_site_fract_z
    _atom_site_occupancy
    Zr0     Zr   0.19023   0.06458   0.75938   1.000
    Zr1     Zr   0.19028   0.56433   0.75929   1.000
    Zr2     Zr   0.69023   0.06458   0.75938   1.000
    Zr3     Zr   0.69027   0.56434   0.75929   1.000
    Zr4     Zr   0.30974   0.43564   0.24075   1.000
    Zr5     Zr   0.30978   0.93540   0.24067   1.000
    Zr6     Zr   0.80973   0.43565   0.24075   1.000
    Zr7     Zr   0.80977   0.93540   0.24066   1.000
    Zr8     Zr   0.99985   0.24990   0.49980   1.000
    Zr9     Zr   0.00015   0.75008   0.50026   1.000
    Zr10    Zr   0.49984   0.24990   0.49981   1.000
    Zr11    Zr   0.50015   0.75009   0.50020   1.000
    Zr12    Zr   0.24980   0.24982   0.49963   1.000
    Zr13    Zr   0.25018   0.75016   0.50040   1.000
    Zr14    Zr   0.74979   0.24982   0.49963   1.000
    Zr15    Zr   0.75017   0.75015   0.50041   1.000
    N16     N    0.16302   0.40039   0.60341   1.000
    O17     O    0.19196   0.34753   0.56635   1.000
    O18     O    0.10729   0.34721   0.56418   1.000
    O19     O    0.17307   0.45468   0.65268   1.000
    N20     N    0.50005   0.25008   0.99985   1.000
    N21     N    0.99999   0.50000   0.00001   1.000
    N22     N    0.33698   0.59959   0.39661   1.000
    O23     O    0.39270   0.65277   0.43584   1.000
    O24     O    0.30804   0.65245   0.43368   1.000
    O25     O    0.32693   0.54530   0.34734   1.000
    N26     N    0.86114   0.34967   0.39723   1.000
    O27     O    0.82505   0.31569   0.43607   1.000
    O28     O    0.90864   0.31498   0.43391   1.000
    O29     O    0.84635   0.37940   0.34788   1.000
    N30     N    0.13859   0.15023   0.60242   1.000
    O31     O    0.17461   0.18410   0.56343   1.000
    O32     O    0.09107   0.18489   0.56575   1.000
    O33     O    0.15346   0.12061   0.65181   1.000
    N34     N    0.63859   0.15023   0.60251   1.000
    O35     O    0.67460   0.18410   0.56347   1.000
    O36     O    0.59107   0.18489   0.56579   1.000
    O37     O    0.65345   0.12061   0.65200   1.000
    N38     N    0.99995   0.74992   0.00016   1.000
    N39     N    0.86139   0.84975   0.39752   1.000
    O40     O    0.82537   0.81588   0.43656   1.000
    O41     O    0.90892   0.81509   0.43425   1.000
    O42     O    0.84653   0.87937   0.34803   1.000
    N43     N    0.00005   0.25008   0.99986   1.000
    N44     N    0.36115   0.34967   0.39724   1.000
    O45     O    0.40865   0.31498   0.43392   1.000
    O46     O    0.32507   0.31569   0.43607   1.000
    O47     O    0.34636   0.37940   0.34788   1.000
    N48     N    0.49999   0.99937   0.00002   1.000
    N49     N    0.66323   0.90065   0.60380   1.000
    O50     O    0.67320   0.95493   0.65298   1.000
    O51     O    0.60755   0.84744   0.56457   1.000
    O52     O    0.69224   0.84780   0.56689   1.000
    N53     N    0.49995   0.74991   0.00016   1.000
    N54     N    1.00000   0.99937   0.99998   1.000
    N55     N    0.63884   0.65031   0.60280   1.000
    O56     O    0.59134   0.68500   0.56612   1.000
    O57     O    0.65364   0.62058   0.65216   1.000
    O58     O    0.67492   0.68429   0.56397   1.000
    N59     N    0.50000   0.50000   0.99997   1.000
    N60     N    0.33676   0.09934   0.39624   1.000
    O61     O    0.30775   0.15218   0.43315   1.000
    O62     O    0.32680   0.04505   0.34706   1.000
    O63     O    0.39244   0.15255   0.43547   1.000
    N64     N    0.16324   0.90065   0.60380   1.000
    O65     O    0.10755   0.84744   0.56458   1.000
    O66     O    0.17320   0.95493   0.65298   1.000
    O67     O    0.19225   0.84781   0.56688   1.000
    N68     N    0.83675   0.09933   0.39624   1.000
    O69     O    0.89244   0.15255   0.43546   1.000
    O70     O    0.82679   0.04505   0.34706   1.000
    O71     O    0.80774   0.15217   0.43315   1.000
    N72     N    0.83697   0.59959   0.39661   1.000
    O73     O    0.89270   0.65277   0.43586   1.000
    O74     O    0.80803   0.65245   0.43368   1.000
    O75     O    0.82692   0.54530   0.34734   1.000
    N76     N    0.66301   0.40040   0.60342   1.000
    O77     O    0.67307   0.45468   0.65270   1.000
    O78     O    0.69195   0.34753   0.56635   1.000
    O79     O    0.60729   0.34721   0.56419   1.000
    N80     N    0.36140   0.84975   0.39754   1.000
    O81     O    0.40892   0.81510   0.43425   1.000
    O82     O    0.34655   0.87938   0.34805   1.000
    O83     O    0.32538   0.81588   0.43657   1.000
    N84     N    0.13885   0.65031   0.60281   1.000
    O85     O    0.17493   0.68429   0.56397   1.000
    O86     O    0.09135   0.68500   0.56614   1.000
    O87     O    0.15365   0.62058   0.65216   1.000
    O88     O    0.37161   0.17436   0.89676   1.000
    O89     O    0.07688   0.02362   0.89669   1.000
    O90     O    0.12839   0.82563   0.10326   1.000
    O91     O    0.42312   0.97574   0.10333   1.000
    O92     O    0.42312   0.47616   0.10336   1.000
    O93     O    0.12846   0.32580   0.10306   1.000
    O94     O    0.07688   0.52383   0.89664   1.000
    O95     O    0.37155   0.67419   0.89696   1.000
    O96     O    0.92312   0.47616   0.10338   1.000
    O97     O    0.62845   0.32580   0.10306   1.000
    O98     O    0.62839   0.82562   0.10326   1.000
    O99     O    0.92311   0.97574   0.10331   1.000
    O100    O    0.87161   0.17436   0.89677   1.000
    O101    O    0.57688   0.02362   0.89671   1.000
    O102    O    0.57687   0.52383   0.89662   1.000
    O103    O    0.87155   0.67419   0.89695   1.000
loop_
    _geom_bond_atom_site_label_1
    _geom_bond_atom_site_label_2
    _geom_bond_distance
    _geom_bond_site_symmetry_2
    _ccdc_geom_bond_type
    N16    O17       1.18600      .   S
    Zr12   O17       2.22721      .   S
    N16    O18       1.18005      .   S
    Zr8    O18       2.21761  1_655   S
    N16    O19       1.02564      .   S
    Zr1    O19       2.10476      .   S
    N22    O23       1.18005      .   S
    Zr11   O23       2.21765      .   S
    N22    O24       1.18602      .   S
    Zr13   O24       2.22724      .   S
    N22    O25       1.02570      .   S
    Zr4    O25       2.10473      .   S
    N26    O27       1.18010      .   S
    Zr14   O27       2.21782      .   S
    N26    O28       1.18614      .   S
    Zr8    O28       2.22767      .   S
    N26    O29       1.02473      .   S
    Zr6    O29       2.10263      .   S
    N30    O31       1.17967      .   S
    Zr12   O31       2.21763      .   S
    N30    O32       1.18580      .   S
    Zr8    O32       2.22723  1_655   S
    N30    O33       1.02346      .   S
    Zr0    O33       2.10435      .   S
    N34    O35       1.18008      .   S
    Zr14   O35       2.21800      .   S
    N34    O36       1.18603      .   S
    Zr10   O36       2.22743      .   S
    N34    O37       1.02464      .   S
    Zr2    O37       2.10235      .   S
    N39    O40       1.18020      .   S
    Zr15   O40       2.21819      .   S
    N39    O41       1.18613      .   S
    Zr9    O41       2.22763  1_455   S
    N39    O42       1.02454      .   S
    Zr7    O42       2.10222      .   S
    N44    O45       1.18609      .   S
    Zr10   O45       2.22757      .   S
    N44    O46       1.18008      .   S
    Zr12   O46       2.21784      .   S
    N44    O47       1.02472      .   S
    Zr4    O47       2.10264      .   S
    N49    O50       1.02548      .   S
    Zr2    O50       2.10415  1_545   S
    N49    O51       1.18008      .   S
    Zr11   O51       2.21770      .   S
    N49    O52       1.18576      .   S
    Zr15   O52       2.22649      .   S
    N55    O56       1.18617      .   S
    Zr11   O56       2.22782      .   S
    N55    O57       1.02475      .   S
    Zr3    O57       2.10264      .   S
    N55    O58       1.18003      .   S
    Zr15   O58       2.21770      .   S
    N60    O61       1.18577      .   S
    Zr12   O61       2.22651      .   S
    N60    O62       1.02549      .   S
    Zr5    O62       2.10416  1_565   S
    N60    O63       1.18008      .   S
    Zr10   O63       2.21775      .   S
    N64    O65       1.18009      .   S
    Zr9    O65       2.21776      .   S
    N64    O66       1.02550      .   S
    Zr0    O66       2.10419  1_545   S
    N64    O67       1.18577      .   S
    Zr13   O67       2.22653      .   S
    N68    O69       1.18012      .   S
    Zr8    O69       2.21788      .   S
    N68    O70       1.02550      .   S
    Zr7    O70       2.10418  1_565   S
    N68    O71       1.18577      .   S
    Zr14   O71       2.22653      .   S
    N72    O73       1.18007      .   S
    Zr9    O73       2.21770  1_455   S
    N72    O74       1.18603      .   S
    Zr15   O74       2.22725      .   S
    N72    O75       1.02569      .   S
    Zr6    O75       2.10469      .   S
    N76    O77       1.02570      .   S
    Zr3    O77       2.10472      .   S
    N76    O78       1.18601      .   S
    Zr14   O78       2.22722      .   S
    N76    O79       1.18005      .   S
    Zr10   O79       2.21761      .   S
    N80    O81       1.18596      .   S
    Zr11   O81       2.22719      .   S
    N80    O82       1.02459      .   S
    Zr5    O82       2.10225      .   S
    N80    O83       1.18012      .   S
    Zr13   O83       2.21805      .   S
    N84    O85       1.18007      .   S
    Zr13   O85       2.21778      .   S
    N84    O86       1.18610      .   S
    Zr9    O86       2.22757      .   S
    N84    O87       1.02475      .   S
    Zr1    O87       2.10267      .   S
    Zr0    O88       3.14889      .   S
    N20    O88       2.22446      .   S
    Zr0    O89       3.15453      .   S
    N54    O89       2.22764  1_665   S
    Zr5    O90       3.14897      .   S
    N38    O90       2.22453  1_655   S
    Zr5    O91       3.14971      .   S
    N48    O91       2.22313      .   S
    Zr4    O92       3.15218      .   S
    N59    O92       2.22557  1_556   S
    Zr4    O93       3.14874      .   S
    N43    O93       2.22450  1_556   S
    Zr1    O94       3.15194      .   S
    N21    O94       2.22532  1_654   S
    Zr1    O95       3.14868      .   S
    N53    O95       2.22445  1_554   S
    Zr6    O96       3.15199      .   S
    N21    O96       2.22538      .   S
    Zr6    O97       3.14870      .   S
    N20    O97       2.22446  1_556   S
    Zr7    O98       3.14890      .   S
    N53    O98       2.22447      .   S
    Zr7    O99       3.14992      .   S
    N54    O99       2.22335  1_556   S
    Zr2    O100      3.14894      .   S
    N43    O100      2.22451  1_455   S
    Zr2    O101      3.15470      .   S
    N48    O101      2.22780  1_564   S
    Zr3    O102      3.15169      .   S
    N59    O102      2.22502      .   S
    Zr3    O103      3.14871      .   S
    N38    O103      2.22452  1_554   S
