# CIF file generated by openbabel 2.4.90, see http://openbabel.sf.net
data_I
_chemical_name_common ''
_cell_length_a 7.3135
_cell_length_b 19.286
_cell_length_c 21.745
_cell_angle_alpha 90.005
_cell_angle_beta 90.014
_cell_angle_gamma 91.651
_space_group_name_H-M_alt 'P 1'
_space_group_name_Hall 'P 1'
loop_
    _symmetry_equiv_pos_as_xyz
    x,y,z
loop_
    _atom_site_label
    _atom_site_type_symbol
    _atom_site_fract_x
    _atom_site_fract_y
    _atom_site_fract_z
    _atom_site_occupancy
    K0      K    0.39925   0.60825   0.66547   1.000
    K1      K    0.53246   0.74736   0.76906   1.000
    K2      K    0.08301   0.11451   0.16546   1.000
    K3      K    0.10157   0.39149   0.16459   1.000
    K4      K    0.96766   0.25277   0.26834   1.000
    K5      K    0.58359   0.11499   0.33512   1.000
    K6      K    0.60097   0.39180   0.33488   1.000
    K7      K    0.46744   0.25259   0.23149   1.000
    K8      K    0.91768   0.88524   0.83545   1.000
    K9      K    0.89917   0.60847   0.83565   1.000
    K10     K    0.03248   0.74729   0.73176   1.000
    K11     K    0.41699   0.88499   0.66525   1.000
    Ts12    Ts   0.37320   0.65448   0.66137   1.000
    Ts13    Ts   0.51366   0.62063   0.68367   1.000
    Ts14    Ts   0.41185   0.58210   0.62911   1.000
    Ts15    Ts   0.34693   0.62070   0.70403   1.000
    Ts16    Ts   0.46201   0.74722   0.73044   1.000
    Ts17    Ts   0.60247   0.71337   0.75274   1.000
    Ts18    Ts   0.60761   0.78149   0.75350   1.000
    Ts19    Ts   0.62864   0.74728   0.79536   1.000
    Ts20    Ts   0.43574   0.71344   0.77310   1.000
    Ts21    Ts   0.44087   0.78151   0.77230   1.000
    Ts22    Ts   0.96943   0.12641   0.18407   1.000
    Ts23    Ts   0.06340   0.08756   0.12977   1.000
    Ts24    Ts   0.11507   0.16055   0.16112   1.000
    Ts25    Ts   0.13603   0.12651   0.20355   1.000
    Ts26    Ts   0.09087   0.41790   0.12829   1.000
    Ts27    Ts   0.12745   0.34521   0.16055   1.000
    Ts28    Ts   0.98686   0.37906   0.18270   1.000
    Ts29    Ts   0.15359   0.37931   0.20305   1.000
    Ts30    Ts   0.89253   0.21859   0.25266   1.000
    Ts31    Ts   0.87145   0.25290   0.29455   1.000
    Ts32    Ts   0.03817   0.25273   0.22971   1.000
    Ts33    Ts   0.89759   0.28658   0.25186   1.000
    Ts34    Ts   0.06432   0.28682   0.27222   1.000
    Ts35    Ts   0.05913   0.21869   0.27214   1.000
    Ts36    Ts   0.63648   0.12674   0.29718   1.000
    Ts37    Ts   0.61540   0.16104   0.33907   1.000
    Ts38    Ts   0.46975   0.12684   0.31666   1.000
    Ts39    Ts   0.56618   0.08831   0.37099   1.000
    Ts40    Ts   0.62700   0.34558   0.33891   1.000
    Ts41    Ts   0.65313   0.37927   0.29622   1.000
    Ts42    Ts   0.48652   0.37951   0.31658   1.000
    Ts43    Ts   0.59063   0.41779   0.37157   1.000
    Ts44    Ts   0.55905   0.21847   0.22809   1.000
    Ts45    Ts   0.53797   0.25278   0.26998   1.000
    Ts46    Ts   0.37136   0.25261   0.20515   1.000
    Ts47    Ts   0.56411   0.28646   0.22730   1.000
    Ts48    Ts   0.39750   0.28670   0.24765   1.000
    Ts49    Ts   0.39231   0.21857   0.24758   1.000
    Ts50    Ts   0.86442   0.87341   0.79776   1.000
    Ts51    Ts   0.88545   0.83920   0.83962   1.000
    Ts52    Ts   0.03102   0.87343   0.81656   1.000
    Ts53    Ts   0.93707   0.91223   0.87093   1.000
    Ts54    Ts   0.84694   0.62077   0.79713   1.000
    Ts55    Ts   0.87311   0.65468   0.83975   1.000
    Ts56    Ts   0.01355   0.62085   0.81749   1.000
    Ts57    Ts   0.90963   0.58206   0.87190   1.000
    Ts58    Ts   0.12869   0.74718   0.70557   1.000
    Ts59    Ts   0.93581   0.71332   0.72787   1.000
    Ts60    Ts   0.94095   0.78145   0.72863   1.000
    Ts61    Ts   0.96198   0.74723   0.77049   1.000
    Ts62    Ts   0.10242   0.71340   0.74823   1.000
    Ts63    Ts   0.10755   0.78146   0.74743   1.000
    Ts64    Ts   0.38503   0.83898   0.66123   1.000
    Ts65    Ts   0.53063   0.87325   0.68428   1.000
    Ts66    Ts   0.43422   0.91154   0.62927   1.000
    Ts67    Ts   0.36389   0.87326   0.70309   1.000
loop_
    _geom_bond_atom_site_label_1
    _geom_bond_atom_site_label_2
    _geom_bond_distance
    _geom_bond_site_symmetry_2
    _ccdc_geom_bond_type
    K0     Ts12      0.92140      .   S
    K0     Ts13      0.94981      .   S
    K0     Ts14      0.94354      .   S
    K0     Ts15      0.95539      .   S
    K1     Ts16      0.98524      .   S
    K1     Ts17      0.91510      .   S
    K1     Ts18      0.91062      .   S
    K1     Ts19      0.90636      .   S
    K1     Ts20      0.95357      .   S
    K1     Ts21      0.95540      .   S
    K2     Ts22      0.95794  1_455   S
    K2     Ts23      0.94258      .   S
    K2     Ts24      0.91680      .   S
    K2     Ts25      0.94060      .   S
    K3     Ts26      0.94396      .   S
    K3     Ts27      0.92197      .   S
    K3     Ts28      0.95120  1_455   S
    K3     Ts29      0.95093      .   S
    K4     Ts30      0.91204      .   S
    K4     Ts31      0.90555      .   S
    K4     Ts32      0.98580  1_655   S
    K4     Ts33      0.91402      .   S
    K4     Ts34      0.95466  1_655   S
    K4     Ts35      0.95484  1_655   S
    K5     Ts36      0.93641      .   S
    K5     Ts37      0.91564      .   S
    K5     Ts38      0.95775      .   S
    K5     Ts39      0.94119      .   S
    K6     Ts40      0.92094      .   S
    K6     Ts41      0.95711      .   S
    K6     Ts42      0.95058      .   S
    K6     Ts43      0.94648      .   S
    K7     Ts44      0.95542      .   S
    K7     Ts45      0.98297      .   S
    K7     Ts46      0.90653      .   S
    K7     Ts47      0.95306      .   S
    K7     Ts48      0.91507      .   S
    K7     Ts49      0.91328      .   S
    K8     Ts50      0.93298      .   S
    K8     Ts51      0.91671      .   S
    K8     Ts52      0.95852  1_655   S
    K8     Ts53      0.93892      .   S
    K9     Ts54      0.95339      .   S
    K9     Ts55      0.92104      .   S
    K9     Ts56      0.94941  1_655   S
    K9     Ts57      0.94275      .   S
    K10    Ts58      0.90539      .   S
    K10    Ts59      0.95369  1_455   S
    K10    Ts60      0.95497  1_455   S
    K10    Ts61      0.98752  1_455   S
    K10    Ts62      0.91454      .   S
    K10    Ts63      0.91156      .   S
    K11    Ts64      0.91537      .   S
    K11    Ts65      0.96130      .   S
    K11    Ts66      0.94149      .   S
    K11    Ts67      0.93505      .   S
