# CIF file generated by openbabel 2.4.90, see http://openbabel.sf.net
data_I
_chemical_name_common ''
_cell_length_a 7.3135
_cell_length_b 19.286
_cell_length_c 21.745
_cell_angle_alpha 90.005
_cell_angle_beta 90.014
_cell_angle_gamma 91.651
_space_group_name_H-M_alt 'P 1'
_space_group_name_Hall 'P 1'
loop_
    _symmetry_equiv_pos_as_xyz
    x,y,z
loop_
    _atom_site_label
    _atom_site_type_symbol
    _atom_site_fract_x
    _atom_site_fract_y
    _atom_site_fract_z
    _atom_site_occupancy
    C0      C    0.41699   0.88499   0.66525   1.000
    C1      C    0.39925   0.60825   0.66547   1.000
    C2      C    0.53246   0.74736   0.76906   1.000
    C3      C    0.08301   0.11451   0.16546   1.000
    C4      C    0.10157   0.39149   0.16459   1.000
    C5      C    0.96766   0.25277   0.26834   1.000
    C6      C    0.58359   0.11499   0.33512   1.000
    C7      C    0.60097   0.39180   0.33488   1.000
    C8      C    0.46744   0.25259   0.23149   1.000
    C9      C    0.91768   0.88524   0.83545   1.000
    C10     C    0.89917   0.60847   0.83565   1.000
    C11     C    0.03248   0.74729   0.73176   1.000
    C12     C    0.65915   0.72701   0.61619   1.000
    C13     C    0.76137   0.72296   0.50705   1.000
    C14     C    0.21289   0.76162   0.44687   1.000
    C15     C    0.10842   0.76428   0.55555   1.000
    C16     C    0.95700   0.63569   0.62181   1.000
    C17     C    0.06725   0.52705   0.57703   1.000
    C18     C    0.76324   0.40955   0.71527   1.000
    C19     C    0.64965   0.51868   0.75868   1.000
    C20     C    0.96440   0.85503   0.62174   1.000
    C21     C    0.08902   0.96414   0.57212   1.000
    C22     C    0.81002   0.08514   0.70795   1.000
    C23     C    0.68750   0.97803   0.75737   1.000
    C24     C    0.42601   0.06178   0.59241   1.000
    C25     C    0.65006   0.05011   0.56119   1.000
    C26     C    0.70970   0.94002   0.51195   1.000
    C27     C    0.52694   0.87611   0.50945   1.000
    C28     C    0.25056   0.52416   0.48366   1.000
    C29     C    0.34891   0.60837   0.50090   1.000
    C30     C    0.53370   0.44293   0.59857   1.000
    C31     C    0.35907   0.42594   0.54227   1.000
    C32     C    0.84119   0.27267   0.11536   1.000
    C33     C    0.73886   0.27660   0.00000   1.000
    C34     C    0.28667   0.23712   0.94617   1.000
    C35     C    0.39137   0.23461   0.05485   1.000
    C36     C    0.54279   0.36390   0.12064   1.000
    C37     C    0.43141   0.47408   0.07742   1.000
    C38     C    0.73729   0.59005   0.21401   1.000
    C39     C    0.85054   0.48091   0.25749   1.000
    C40     C    0.53345   0.14438   0.12121   1.000
    C41     C    0.41084   0.03618   0.07275   1.000
    C42     C    0.68930   0.91475   0.20811   1.000
    C43     C    0.81291   0.02214   0.25681   1.000
    C44     C    0.06718   0.93587   0.09190   1.000
    C45     C    0.84600   0.94734   0.05870   1.000
    C46     C    0.78688   0.05833   0.01092   1.000
    C47     C    0.96729   0.12321   0.01163   1.000
    C48     C    0.25231   0.47566   0.98191   1.000
    C49     C    0.15535   0.39159   0.00037   1.000
    C50     C    0.97312   0.55761   0.09767   1.000
    C51     C    0.14516   0.57458   0.04041   1.000
    C52     C    0.34111   0.27280   0.38417   1.000
    C53     C    0.23944   0.27677   0.49336   1.000
    C54     C    0.78827   0.23819   0.55321   1.000
    C55     C    0.89226   0.23572   0.44446   1.000
    C56     C    0.04409   0.36341   0.37862   1.000
    C57     C    0.93139   0.47463   0.42144   1.000
    C58     C    0.23575   0.59068   0.28689   1.000
    C59     C    0.34910   0.48211   0.24226   1.000
    C60     C    0.03347   0.14423   0.37980   1.000
    C61     C    0.91150   0.03582   0.42795   1.000
    C62     C    0.19032   0.91498   0.29232   1.000
    C63     C    0.31336   0.02258   0.24390   1.000
    C64     C    0.57396   0.93780   0.40764   1.000
    C65     C    0.34994   0.94950   0.43889   1.000
    C66     C    0.29036   0.05960   0.48809   1.000
    C67     C    0.47317   0.12348   0.49061   1.000
    C68     C    0.75609   0.47523   0.51780   1.000
    C69     C    0.65741   0.39112   0.50039   1.000
    C70     C    0.47237   0.55647   0.40275   1.000
    C71     C    0.64717   0.57378   0.45890   1.000
    C72     C    0.15878   0.72715   0.88461   1.000
    C73     C    0.26115   0.72323   0.99377   1.000
    C74     C    0.71318   0.76283   0.05419   1.000
    C75     C    0.60867   0.76523   0.94549   1.000
    C76     C    0.45672   0.63588   0.87948   1.000
    C77     C    0.56815   0.52570   0.92268   1.000
    C78     C    0.26243   0.40976   0.78603   1.000
    C79     C    0.14917   0.51892   0.74255   1.000
    C80     C    0.46576   0.85556   0.87904   1.000
    C81     C    0.58820   0.96371   0.92763   1.000
    C82     C    0.31070   0.08526   0.79213   1.000
    C83     C    0.18723   0.97792   0.74331   1.000
    C84     C    0.93263   0.06391   0.90820   1.000
    C85     C    0.15408   0.05275   0.94160   1.000
    C86     C    0.21305   0.94164   0.98922   1.000
    C87     C    0.03258   0.87679   0.98839   1.000
    C88     C    0.74774   0.52419   0.01817   1.000
    C89     C    0.84465   0.60830   0.99977   1.000
    C90     C    0.02694   0.44217   0.90242   1.000
    C91     C    0.85499   0.42534   0.95956   1.000
    C92     C    0.37476   0.74560   0.59523   1.000
    C93     C    0.56081   0.73426   0.57907   1.000
    C94     C    0.61858   0.73214   0.51801   1.000
    C95     C    0.49322   0.74195   0.47054   1.000
    C96     C    0.30972   0.75369   0.48414   1.000
    C97     C    0.25188   0.75527   0.54517   1.000
    C98     C    0.79926   0.58739   0.69574   1.000
    C99     C    0.91690   0.58636   0.64329   1.000
    C100    C    0.97833   0.52463   0.61851   1.000
    C101    C    0.92521   0.46097   0.64491   1.000
    C102    C    0.80688   0.45915   0.69526   1.000
    C103    C    0.74456   0.52101   0.71986   1.000
    C104    C    0.82085   0.90662   0.69535   1.000
    C105    C    0.93336   0.90533   0.64164   1.000
    C106    C    0.00243   0.96664   0.61287   1.000
    C107    C    0.95739   0.03055   0.63789   1.000
    C108    C    0.84543   0.03463   0.68966   1.000
    C109    C    0.77816   0.97400   0.71763   1.000
    C110    C    0.50263   0.03882   0.55447   1.000
    C111    C    0.56047   0.93188   0.50665   1.000
    C112    C    0.37744   0.55298   0.49673   1.000
    C113    C    0.48328   0.45753   0.55296   1.000
    C114    C    0.12535   0.25381   0.09451   1.000
    C115    C    0.93942   0.26526   0.07824   1.000
    C116    C    0.88158   0.26731   0.01718   1.000
    C117    C    0.00663   0.25726   0.96983   1.000
    C118    C    0.19002   0.24528   0.98344   1.000
    C119    C    0.24798   0.24379   0.04446   1.000
    C120    C    0.70071   0.41220   0.19457   1.000
    C121    C    0.58305   0.41324   0.14210   1.000
    C122    C    0.52181   0.47497   0.11728   1.000
    C123    C    0.57516   0.53864   0.14365   1.000
    C124    C    0.69349   0.54045   0.19402   1.000
    C125    C    0.75559   0.47858   0.21867   1.000
    C126    C    0.67845   0.09320   0.19473   1.000
    C127    C    0.56477   0.09420   0.14128   1.000
    C128    C    0.49726   0.03354   0.11355   1.000
    C129    C    0.54058   0.96895   0.13813   1.000
    C130    C    0.65360   0.96516   0.18967   1.000
    C131    C    0.72147   0.02595   0.21724   1.000
    C132    C    0.99361   0.95961   0.05382   1.000
    C133    C    0.93629   0.06736   0.00741   1.000
    C134    C    0.12627   0.44689   0.99586   1.000
    C135    C    0.02190   0.54282   0.05187   1.000
    C136    C    0.62567   0.25437   0.40495   1.000
    C137    C    0.43968   0.26562   0.42123   1.000
    C138    C    0.38220   0.26766   0.48232   1.000
    C139    C    0.50780   0.25782   0.52972   1.000
    C140    C    0.69126   0.24613   0.51600   1.000
    C141    C    0.74882   0.24467   0.45493   1.000
    C142    C    0.20070   0.41261   0.30485   1.000
    C143    C    0.08375   0.41299   0.35750   1.000
    C144    C    0.02247   0.47439   0.38296   1.000
    C145    C    0.07504   0.53837   0.35707   1.000
    C146    C    0.19259   0.54082   0.30651   1.000
    C147    C    0.25478   0.47929   0.28123   1.000
    C148    C    0.17871   0.09337   0.30618   1.000
    C149    C    0.06506   0.09412   0.35962   1.000
    C150    C    0.99793   0.03335   0.38716   1.000
    C151    C    0.04148   0.96885   0.36247   1.000
    C152    C    0.15440   0.96530   0.31089   1.000
    C153    C    0.22195   0.02622   0.28348   1.000
    C154    C    0.49739   0.96078   0.44559   1.000
    C155    C    0.43959   0.06771   0.49341   1.000
    C156    C    0.62915   0.44651   0.50465   1.000
    C157    C    0.52317   0.54200   0.44835   1.000
    C158    C    0.87474   0.74597   0.90589   1.000
    C159    C    0.06061   0.73462   0.92173   1.000
    C160    C    0.11846   0.73257   0.98279   1.000
    C161    C    0.99325   0.74265   0.03061   1.000
    C162    C    0.80989   0.75462   0.01695   1.000
    C163    C    0.75204   0.75605   0.95592   1.000
    C164    C    0.29897   0.58761   0.80550   1.000
    C165    C    0.41649   0.58655   0.85800   1.000
    C166    C    0.47776   0.52482   0.88281   1.000
    C167    C    0.42445   0.46116   0.85642   1.000
    C168    C    0.30616   0.45936   0.80603   1.000
    C169    C    0.24406   0.52123   0.78139   1.000
    C170    C    0.32130   0.90680   0.80544   1.000
    C171    C    0.43458   0.90576   0.85898   1.000
    C172    C    0.50202   0.96639   0.88678   1.000
    C173    C    0.45896   0.03100   0.86219   1.000
    C174    C    0.34622   0.03484   0.81058   1.000
    C175    C    0.27843   0.97407   0.78295   1.000
    C176    C    0.00646   0.04047   0.94645   1.000
    C177    C    0.06363   0.93263   0.99269   1.000
    C178    C    0.87377   0.55299   0.00423   1.000
    C179    C    0.97821   0.45714   0.94813   1.000
    C180    C    0.56632   0.73983   0.39392   1.000
    C181    C    0.00520   0.38469   0.61140   1.000
    C182    C    0.04248   0.10783   0.60295   1.000
    C183    C    0.93363   0.25933   0.89310   1.000
    C184    C    0.49497   0.61600   0.11284   1.000
    C185    C    0.45619   0.89241   0.10336   1.000
    C186    C    0.43506   0.25984   0.60637   1.000
    C187    C    0.99417   0.61657   0.38596   1.000
    C188    C    0.95773   0.89216   0.39698   1.000
    C189    C    0.06648   0.74063   0.10687   1.000
    C190    C    0.50474   0.38379   0.88718   1.000
    C191    C    0.54334   0.10750   0.89702   1.000
    C192    C    0.32110   0.74694   0.65319   1.000
    C193    C    0.74247   0.64537   0.72009   1.000
    C194    C    0.75790   0.84975   0.72236   1.000
    C195    C    0.46869   0.96464   0.55732   1.000
    C196    C    0.43706   0.52980   0.55641   1.000
    C197    C    0.17920   0.25265   0.15245   1.000
    C198    C    0.75745   0.35420   0.21890   1.000
    C199    C    0.74227   0.15023   0.22129   1.000
    C200    C    0.02418   0.03367   0.05840   1.000
    C201    C    0.06948   0.47071   0.05568   1.000
    C202    C    0.67904   0.25315   0.34696   1.000
    C203    C    0.25763   0.35494   0.27996   1.000
    C204    C    0.24206   0.15052   0.27974   1.000
    C205    C    0.53138   0.03494   0.44274   1.000
    C206    C    0.56996   0.46979   0.44496   1.000
    C207    C    0.82099   0.74711   0.84794   1.000
    C208    C    0.24230   0.64561   0.78116   1.000
    C209    C    0.25770   0.84980   0.77878   1.000
    C210    C    0.97583   0.96620   0.94187   1.000
    C211    C    0.93055   0.52925   0.94439   1.000
    O212    O    0.81022   0.27196   0.00859   1.000
    O213    O    0.14081   0.41924   0.99812   1.000
    O214    O    0.81076   0.53859   0.01120   1.000
    O215    O    0.94783   0.54790   0.02805   1.000
    O216    O    0.90216   0.54112   0.97431   1.000
    O217    O    0.85921   0.58064   0.00200   1.000
    O218    O    0.86159   0.06284   0.00917   1.000
    O219    O    0.95179   0.09528   0.00952   1.000
    O220    O    0.98023   0.05051   0.03291   1.000
    O221    O    0.97137   0.05391   0.97693   1.000
    O222    O    0.90157   0.74863   0.02378   1.000
    O223    O    0.76153   0.75873   0.03557   1.000
    O224    O    0.78097   0.75534   0.98643   1.000
    O225    O    0.91050   0.26628   0.04771   1.000
    O226    O    0.94411   0.26229   0.99350   1.000
    O227    O    0.02987   0.74164   0.06874   1.000
    O228    O    0.05586   0.73761   0.00670   1.000
    O229    O    0.08353   0.55870   0.04614   1.000
    O230    O    0.31968   0.23920   0.04966   1.000
    O231    O    0.18667   0.24880   0.06949   1.000
    O232    O    0.21900   0.24453   0.01395   1.000
    O233    O    0.04569   0.50676   0.05377   1.000
    O234    O    0.99751   0.55021   0.07477   1.000
    O235    O    0.00889   0.99664   0.05611   1.000
    O236    O    0.91980   0.95347   0.05626   1.000
    O237    O    0.03040   0.94774   0.07286   1.000
    O238    O    0.02862   0.94612   0.02325   1.000
    O239    O    0.09788   0.45880   0.02577   1.000
    O240    O    0.45405   0.03486   0.09315   1.000
    O241    O    0.47661   0.47453   0.09735   1.000
    O242    O    0.03238   0.25954   0.08638   1.000
    O243    O    0.89030   0.26896   0.09680   1.000
    O244    O    0.15227   0.25323   0.12348   1.000
    O245    O    0.49838   0.93068   0.12075   1.000
    O246    O    0.53506   0.57732   0.12824   1.000
    O247    O    0.51892   0.00124   0.12584   1.000
    O248    O    0.53101   0.06387   0.12742   1.000
    O249    O    0.55243   0.44411   0.12969   1.000
    O250    O    0.54848   0.50681   0.13046   1.000
    O251    O    0.56292   0.38857   0.13137   1.000
    O252    O    0.54911   0.11929   0.13125   1.000
    O253    O    0.59709   0.96705   0.16390   1.000
    O254    O    0.62161   0.09370   0.16801   1.000
    O255    O    0.64188   0.41272   0.16834   1.000
    O256    O    0.63432   0.53954   0.16883   1.000
    O257    O    0.32332   0.25262   0.19197   1.000
    O258    O    0.67145   0.93996   0.19889   1.000
    O259    O    0.68754   0.99556   0.20346   1.000
    O260    O    0.71539   0.56525   0.20401   1.000
    O261    O    0.72454   0.50951   0.20634   1.000
    O262    O    0.72815   0.44539   0.20662   1.000
    O263    O    0.72908   0.38320   0.20674   1.000
    O264    O    0.69996   0.05958   0.20598   1.000
    O265    O    0.71036   0.12171   0.20801   1.000
    O266    O    0.76719   0.02405   0.23702   1.000
    O267    O    0.80307   0.47975   0.23808   1.000
    O268    O    0.30194   0.48070   0.26174   1.000
    O269    O    0.26766   0.02440   0.26369   1.000
    O270    O    0.82335   0.25296   0.30765   1.000
    O271    O    0.21039   0.12195   0.29296   1.000
    O272    O    0.22916   0.38377   0.29241   1.000
    O273    O    0.22774   0.44595   0.29304   1.000
    O274    O    0.22369   0.51005   0.29387   1.000
    O275    O    0.20033   0.05980   0.29483   1.000
    O276    O    0.18818   0.99576   0.29719   1.000
    O277    O    0.21417   0.56575   0.29670   1.000
    O278    O    0.17236   0.94014   0.30161   1.000
    O279    O    0.14223   0.41280   0.33118   1.000
    O280    O    0.12188   0.09375   0.33290   1.000
    O281    O    0.13382   0.53960   0.33179   1.000
    O282    O    0.09794   0.96707   0.33668   1.000
    O283    O    0.65236   0.25376   0.37595   1.000
    O284    O    0.04876   0.50638   0.37001   1.000
    O285    O    0.03461   0.57747   0.37151   1.000
    O286    O    0.06392   0.38820   0.36806   1.000
    O287    O    0.05311   0.44369   0.37023   1.000
    O288    O    0.04927   0.11917   0.36971   1.000
    O289    O    0.03150   0.06374   0.37339   1.000
    O290    O    0.01971   0.00110   0.37481   1.000
    O291    O    0.99961   0.93051   0.37972   1.000
    O292    O    0.97693   0.47451   0.40220   1.000
    O293    O    0.39040   0.26921   0.40270   1.000
    O294    O    0.95472   0.03459   0.40755   1.000
    O295    O    0.52977   0.74089   0.43223   1.000
    O296    O    0.49777   0.54924   0.42555   1.000
    O297    O    0.53268   0.25999   0.41309   1.000
    O298    O    0.68725   0.24952   0.42994   1.000
    O299    O    0.53568   0.94929   0.42662   1.000
    O300    O    0.41094   0.26664   0.45178   1.000
    O301    O    0.42367   0.95514   0.44224   1.000
    O302    O    0.51438   0.99786   0.44416   1.000
    O303    O    0.48549   0.05133   0.46807   1.000
    O304    O    0.82054   0.24019   0.44970   1.000
    O305    O    0.54656   0.50590   0.44665   1.000
    O306    O    0.59955   0.45815   0.47480   1.000
    O307    O    0.52893   0.94633   0.47612   1.000
    O308    O    0.26131   0.75765   0.46550   1.000
    O309    O    0.58517   0.55789   0.45363   1.000
    O310    O    0.45030   0.54749   0.47254   1.000
    O311    O    0.72004   0.24540   0.48547   1.000
    O312    O    0.40147   0.74782   0.47734   1.000
    O313    O    0.55590   0.73704   0.49427   1.000
    O314    O    0.31082   0.27221   0.48784   1.000
    O315    O    0.44500   0.26274   0.50602   1.000
    O316    O    0.31400   0.53857   0.49019   1.000
    O317    O    0.28080   0.75448   0.51465   1.000
    O318    O    0.36498   0.06366   0.49075   1.000
    O319    O    0.45638   0.09560   0.49201   1.000
    O320    O    0.47111   0.05326   0.52394   1.000
    O321    O    0.36317   0.58067   0.49881   1.000
    O322    O    0.40725   0.54139   0.52657   1.000
    O323    O    0.64328   0.41882   0.50252   1.000
    O324    O    0.69262   0.46087   0.51122   1.000
    O325    O    0.55621   0.45202   0.52881   1.000
    O326    O    0.54370   0.90399   0.50805   1.000
    O327    O    0.63509   0.93595   0.50930   1.000
    O328    O    0.51458   0.94826   0.53198   1.000
    O329    O    0.68998   0.72755   0.51253   1.000
    O330    O    0.59953   0.25198   0.52286   1.000
    O331    O    0.73976   0.24216   0.53461   1.000
    O332    O    0.58970   0.73320   0.54854   1.000
    O333    O    0.47143   0.25883   0.56804   1.000
    O334    O    0.42117   0.44174   0.54761   1.000
    O335    O    0.18015   0.75978   0.55036   1.000
    O336    O    0.31332   0.75043   0.57020   1.000
    O337    O    0.46017   0.49367   0.55469   1.000
    O338    O    0.50849   0.45023   0.57576   1.000
    O339    O    0.48566   0.00173   0.55590   1.000
    O340    O    0.57635   0.04446   0.55783   1.000
    O341    O    0.46432   0.05030   0.57344   1.000
    O342    O    0.04572   0.96539   0.59250   1.000
    O343    O    0.02279   0.52584   0.59777   1.000
    O344    O    0.46779   0.73993   0.58715   1.000
    O345    O    0.60998   0.73064   0.59763   1.000
    O346    O    0.34793   0.74627   0.62421   1.000
    O347    O    0.99993   0.06919   0.62042   1.000
    O348    O    0.96521   0.42283   0.62815   1.000
    O349    O    0.97991   0.99860   0.62538   1.000
    O350    O    0.96789   0.93598   0.62726   1.000
    O351    O    0.94761   0.55550   0.63090   1.000
    O352    O    0.95177   0.49280   0.63171   1.000
    O353    O    0.94888   0.88018   0.63169   1.000
    O354    O    0.93695   0.61102   0.63255   1.000
    O355    O    0.90141   0.03259   0.66377   1.000
    O356    O    0.87710   0.90597   0.66849   1.000
    O357    O    0.85808   0.58687   0.66952   1.000
    O358    O    0.86605   0.46006   0.67009   1.000
    O359    O    0.17679   0.74712   0.69247   1.000
    O360    O    0.82772   0.05988   0.69880   1.000
    O361    O    0.81179   0.00431   0.70364   1.000
    O362    O    0.78506   0.43435   0.70527   1.000
    O363    O    0.77572   0.49008   0.70756   1.000
    O364    O    0.79950   0.94031   0.70649   1.000
    O365    O    0.78938   0.87819   0.70885   1.000
    O366    O    0.77191   0.55420   0.70780   1.000
    O367    O    0.77087   0.61638   0.70791   1.000
    O368    O    0.73283   0.97601   0.73750   1.000
    O369    O    0.69711   0.51984   0.73927   1.000
    O370    O    0.19661   0.52007   0.76197   1.000
    O371    O    0.23283   0.97600   0.76313   1.000
    O372    O    0.67673   0.74723   0.80850   1.000
    O373    O    0.28950   0.87830   0.79211   1.000
    O374    O    0.27064   0.61661   0.79333   1.000
    O375    O    0.27152   0.55442   0.79345   1.000
    O376    O    0.27511   0.49030   0.79371   1.000
    O377    O    0.29986   0.94044   0.79419   1.000
    O378    O    0.31233   0.00446   0.79676   1.000
    O379    O    0.28429   0.43456   0.79603   1.000
    O380    O    0.32846   0.06005   0.80136   1.000
    O381    O    0.37794   0.90628   0.83221   1.000
    O382    O    0.35773   0.58708   0.83175   1.000
    O383    O    0.36531   0.46026   0.83123   1.000
    O384    O    0.40259   0.03292   0.83638   1.000
    O385    O    0.84786   0.74654   0.87692   1.000
    O386    O    0.45111   0.49299   0.86961   1.000
    O387    O    0.46460   0.42248   0.87180   1.000
    O388    O    0.43661   0.61122   0.86874   1.000
    O389    O    0.44712   0.55568   0.87040   1.000
    O390    O    0.45017   0.88066   0.86901   1.000
    O391    O    0.46830   0.93607   0.87288   1.000
    O392    O    0.48049   0.99870   0.87448   1.000
    O393    O    0.50115   0.06925   0.87961   1.000
    O394    O    0.52295   0.52526   0.90274   1.000
    O395    O    0.10970   0.73088   0.90317   1.000
    O396    O    0.54511   0.96505   0.90720   1.000
    O397    O    0.97013   0.25829   0.93147   1.000
    O398    O    0.00258   0.44966   0.92527   1.000
    O399    O    0.96767   0.74029   0.91381   1.000
    O400    O    0.81339   0.75101   0.93090   1.000
    O401    O    0.96955   0.05219   0.92733   1.000
    O402    O    0.08953   0.73360   0.95226   1.000
    O403    O    0.08027   0.04661   0.94403   1.000
    O404    O    0.99115   0.00334   0.94416   1.000
    O405    O    0.01973   0.94941   0.96728   1.000
    O406    O    0.95438   0.49319   0.94626   1.000
    O407    O    0.68035   0.76064   0.95070   1.000
    O408    O    0.23835   0.24120   0.96480   1.000
    O409    O    0.91660   0.44124   0.95384   1.000
    O410    O    0.05224   0.45202   0.97199   1.000
    O411    O    0.09833   0.25127   0.97664   1.000
    O412    O    0.18929   0.46128   0.98889   1.000
    O413    O    0.18980   0.72790   0.98828   1.000
    O414    O    0.04810   0.90471   0.99054   1.000
    O415    O    0.13834   0.93713   0.99095   1.000
    O416    O    0.36905   0.81597   0.65922   1.000
    O417    O    0.36018   0.67760   0.65933   1.000
    O418    O    0.42678   0.74715   0.71113   1.000
    O419    O    0.57086   0.62681   0.69278   1.000
    O420    O    0.63747   0.69637   0.74458   1.000
    O421    O    0.82082   0.62692   0.77787   1.000
    O422    O    0.88748   0.69633   0.72592   1.000
    O423    O    0.58745   0.86737   0.69380   1.000
    O424    O    0.64518   0.79856   0.74571   1.000
    O425    O    0.83779   0.86750   0.77891   1.000
    O426    O    0.89519   0.79852   0.72706   1.000
    O427    O    0.44284   0.92482   0.61129   1.000
    O428    O    0.41816   0.56903   0.61094   1.000
    O429    O    0.13110   0.18358   0.15896   1.000
    O430    O    0.14038   0.32207   0.15852   1.000
    O431    O    0.07343   0.25271   0.21040   1.000
    O432    O    0.92951   0.37285   0.19175   1.000
    O433    O    0.86256   0.30349   0.24362   1.000
    O434    O    0.67921   0.37300   0.27689   1.000
    O435    O    0.61244   0.30340   0.22520   1.000
    O436    O    0.91264   0.13237   0.19337   1.000
    O437    O    0.85496   0.20150   0.24482   1.000
    O438    O    0.66293   0.13261   0.27820   1.000
    O439    O    0.60485   0.20141   0.22639   1.000
    O440    O    0.05360   0.07409   0.11193   1.000
    O441    O    0.08553   0.43110   0.11014   1.000
    O442    O    0.63131   0.18407   0.34104   1.000
    O443    O    0.64001   0.32247   0.34092   1.000
    O444    O    0.57324   0.25287   0.28922   1.000
    O445    O    0.17960   0.37321   0.22228   1.000
    O446    O    0.11264   0.30385   0.27415   1.000
    O447    O    0.42930   0.37337   0.30742   1.000
    O448    O    0.36253   0.30376   0.25573   1.000
    O449    O    0.16254   0.13251   0.22260   1.000
    O450    O    0.10486   0.20165   0.27404   1.000
    O451    O    0.41283   0.13276   0.30743   1.000
    O452    O    0.35475   0.20156   0.25562   1.000
    O453    O    0.55748   0.07497   0.38893   1.000
    O454    O    0.58547   0.43079   0.38992   1.000
    O455    O    0.86934   0.81618   0.84170   1.000
    O456    O    0.86008   0.67779   0.84180   1.000
    O457    O    0.92673   0.74720   0.78985   1.000
    O458    O    0.32078   0.62693   0.72331   1.000
    O459    O    0.38738   0.69649   0.77511   1.000
    O460    O    0.07074   0.62704   0.80841   1.000
    O461    O    0.13739   0.69645   0.75646   1.000
    O462    O    0.33734   0.86740   0.72201   1.000
    O463    O    0.39508   0.79858   0.77392   1.000
    O464    O    0.08769   0.86752   0.80712   1.000
    O465    O    0.14509   0.79855   0.75527   1.000
    O466    O    0.94676   0.92572   0.88866   1.000
    O467    O    0.91486   0.56886   0.89002   1.000
loop_
    _geom_bond_atom_site_label_1
    _geom_bond_atom_site_label_2
    _geom_bond_distance
    _geom_bond_site_symmetry_2
    _ccdc_geom_bond_type
    C33    O212      0.56383      .   S
    C116   O212      0.56383      .   S
    C49    O213      0.54900  1_554   S
    C134   O213      0.54900      .   S
    C178   O214      0.55236      .   S
    C88    O214      0.55236      .   S
    C178   O215      0.75778      .   S
    C135   O215      0.75778  1_455   S
    C178   O216      0.72221  1_554   S
    C211   O216      0.72221      .   S
    C178   O217      0.54899      .   S
    C89    O217      0.54899  1_556   S
    C133   O218      0.55207      .   S
    C46    O218      0.55207      .   S
    C133   O219      0.54906      .   S
    C47    O219      0.54906      .   S
    C133   O220      0.72253      .   S
    C200   O220      0.72253  1_455   S
    C133   O221      0.75911  1_554   S
    C176   O221      0.75911  1_455   S
    C162   O222      0.69956      .   S
    C161   O222      0.69956      .   S
    C162   O223      0.54493      .   S
    C74    O223      0.54493      .   S
    C162   O224      0.69676  1_554   S
    C163   O224      0.69676      .   S
    C116   O225      0.69722      .   S
    C115   O225      0.69722      .   S
    C116   O226      0.69722  1_554   S
    C117   O226      0.69722  1_455   S
    C161   O227      0.87161  1_655   S
    C189   O227      0.87161      .   S
    C161   O228      0.70144  1_655   S
    C160   O228      0.70144  1_556   S
    C51    O229      0.55188      .   S
    C135   O229      0.55188      .   S
    C119   O230      0.54605      .   S
    C35    O230      0.54605      .   S
    C119   O231      0.71354      .   S
    C114   O231      0.71354      .   S
    C119   O232      0.69677      .   S
    C118   O232      0.69677  1_556   S
    C135   O233      0.72282      .   S
    C201   O233      0.72282      .   S
    C135   O234      0.54925  1_455   S
    C50    O234      0.54925      .   S
    C132   O235      0.72134  1_655   S
    C200   O235      0.72134  1_545   S
    C132   O236      0.55183      .   S
    C45    O236      0.55183      .   S
    C132   O237      0.54753  1_655   S
    C44    O237      0.54753      .   S
    C132   O238      0.76087  1_655   S
    C177   O238      0.76087  1_556   S
    C201   O239      0.72218      .   S
    C134   O239      0.72218  1_556   S
    C41    O240      0.54558      .   S
    C128   O240      0.54558      .   S
    C37    O241      0.54497      .   S
    C122   O241      0.54497      .   S
    C115   O242      0.71416  1_655   S
    C114   O242      0.71416      .   S
    C115   O243      0.54634      .   S
    C32    O243      0.54634      .   S
    C114   O244      0.66017      .   S
    C197   O244      0.66017      .   S
    C185   O245      0.87724      .   S
    C129   O245      0.87724      .   S
    C184   O246      0.87594      .   S
    C123   O246      0.87594      .   S
    C128   O247      0.70009      .   S
    C129   O247      0.70009  1_565   S
    C128   O248      0.69687      .   S
    C127   O248      0.69687      .   S
    C122   O249      0.69643      .   S
    C121   O249      0.69643      .   S
    C122   O250      0.70015      .   S
    C123   O250      0.70015      .   S
    C36    O251      0.54627      .   S
    C121   O251      0.54627      .   S
    C40    O252      0.54602      .   S
    C127   O252      0.54602      .   S
    C129   O253      0.69784      .   S
    C130   O253      0.69784      .   S
    C127   O254      0.71465      .   S
    C126   O254      0.71465      .   S
    C121   O255      0.71464      .   S
    C120   O255      0.71464      .   S
    C123   O256      0.69782      .   S
    C124   O256      0.69782      .   S
    C197   O257      1.35980      .   S
    C8     O257      1.35980      .   S
    C130   O258      0.54512      .   S
    C42    O258      0.54512      .   S
    C130   O259      0.69756      .   S
    C131   O259      0.69756  1_545   S
    C124   O260      0.54519      .   S
    C38    O260      0.54519      .   S
    C124   O261      0.69792      .   S
    C125   O261      0.69792      .   S
    C120   O262      0.71505      .   S
    C125   O262      0.71505      .   S
    C120   O263      0.65764      .   S
    C198   O263      0.65764      .   S
    C126   O264      0.71489      .   S
    C131   O264      0.71489      .   S
    C126   O265      0.65782      .   S
    C199   O265      0.65782      .   S
    C131   O266      0.54675      .   S
    C43    O266      0.54675      .   S
    C125   O267      0.54654      .   S
    C39    O267      0.54654      .   S
    C59    O268      0.54657      .   S
    C147   O268      0.54657      .   S
    C63    O269      0.54675      .   S
    C153   O269      0.54675      .   S
    C5     O270      1.35833      .   S
    C202   O270      1.35833      .   S
    C204   O271      0.65777      .   S
    C148   O271      0.65777      .   S
    C203   O272      0.65771      .   S
    C142   O272      0.65771      .   S
    C147   O273      0.71502      .   S
    C142   O273      0.71502      .   S
    C147   O274      0.69794      .   S
    C146   O274      0.69794      .   S
    C153   O275      0.71494      .   S
    C148   O275      0.71494      .   S
    C153   O276      0.69759  1_545   S
    C152   O276      0.69759      .   S
    C58    O277      0.54518      .   S
    C146   O277      0.54518      .   S
    C62    O278      0.54512      .   S
    C152   O278      0.54512      .   S
    C142   O279      0.71465      .   S
    C143   O279      0.71465      .   S
    C148   O280      0.71465      .   S
    C149   O280      0.71465      .   S
    C146   O281      0.69786      .   S
    C145   O281      0.69786      .   S
    C152   O282      0.69785      .   S
    C151   O282      0.69785      .   S
    C202   O283      0.66031      .   S
    C136   O283      0.66031      .   S
    C145   O284      0.70012      .   S
    C144   O284      0.70012      .   S
    C145   O285      0.87611      .   S
    C187   O285      0.87611  1_655   S
    C143   O286      0.54624      .   S
    C56    O286      0.54624      .   S
    C143   O287      0.69645      .   S
    C144   O287      0.69645      .   S
    C149   O288      0.54603      .   S
    C60    O288      0.54603      .   S
    C149   O289      0.69641      .   S
    C150   O289      0.69641  1_655   S
    C151   O290      0.70003  1_565   S
    C150   O290      0.70003  1_655   S
    C151   O291      0.87661  1_455   S
    C188   O291      0.87661      .   S
    C144   O292      0.53487  1_455   S
    C57    O292      0.53487      .   S
    C52    O293      0.54631      .   S
    C137   O293      0.54631      .   S
    C150   O294      0.54556      .   S
    C61    O294      0.54556      .   S
    C180   O295      0.87530      .   S
    C95    O295      0.87530      .   S
    C70    O296      0.54889      .   S
    C157   O296      0.54889      .   S
    C136   O297      0.71413      .   S
    C137   O297      0.71413      .   S
    C136   O298      0.71356      .   S
    C141   O298      0.71356      .   S
    C64    O299      0.54896      .   S
    C154   O299      0.54896      .   S
    C137   O300      0.69717      .   S
    C138   O300      0.69717      .   S
    C65    O301      0.55176      .   S
    C154   O301      0.55176      .   S
    C205   O302      0.72301  1_545   S
    C154   O302      0.72301      .   S
    C205   O303      0.72269      .   S
    C155   O303      0.72269      .   S
    C55    O304      0.54604      .   S
    C141   O304      0.54604      .   S
    C206   O305      0.72280      .   S
    C157   O305      0.72280      .   S
    C206   O306      0.72197      .   S
    C156   O306      0.72197      .   S
    C154   O307      0.75839      .   S
    C111   O307      0.75839      .   S
    C14    O308      0.54492      .   S
    C96    O308      0.54492      .   S
    C157   O309      0.55189      .   S
    C71    O309      0.55189      .   S
    C157   O310      0.75840      .   S
    C112   O310      0.75840      .   S
    C141   O311      0.69680      .   S
    C140   O311      0.69680      .   S
    C95    O312      0.69956      .   S
    C96    O312      0.69956      .   S
    C95    O313      0.69847      .   S
    C94    O313      0.69847      .   S
    C138   O314      0.54529      .   S
    C53    O314      0.54529      .   S
    C138   O315      0.69848      .   S
    C139   O315      0.69848      .   S
    C28    O316      0.55247      .   S
    C112   O316      0.55247      .   S
    C96    O317      0.69676      .   S
    C97    O317      0.69676      .   S
    C66    O318      0.55209      .   S
    C155   O318      0.55209      .   S
    C67    O319      0.54901      .   S
    C155   O319      0.54901      .   S
    C155   O320      0.75839      .   S
    C110   O320      0.75839      .   S
    C112   O321      0.54899      .   S
    C29    O321      0.54899      .   S
    C112   O322      0.72209      .   S
    C196   O322      0.72209      .   S
    C69    O323      0.54895      .   S
    C156   O323      0.54895      .   S
    C156   O324      0.55240      .   S
    C68    O324      0.55240      .   S
    C156   O325      0.75832      .   S
    C113   O325      0.75832      .   S
    C111   O326      0.54898      .   S
    C27    O326      0.54898      .   S
    C111   O327      0.55210      .   S
    C26    O327      0.55210      .   S
    C111   O328      0.72266      .   S
    C195   O328      0.72266      .   S
    C13    O329      0.54529      .   S
    C94    O329      0.54529      .   S
    C140   O330      0.69955      .   S
    C139   O330      0.69955      .   S
    C140   O331      0.54492      .   S
    C54    O331      0.54492      .   S
    C94    O332      0.69719      .   S
    C93    O332      0.69719      .   S
    C139   O333      0.87527      .   S
    C186   O333      0.87527      .   S
    C31    O334      0.55189      .   S
    C113   O334      0.55189      .   S
    C97    O335      0.54604      .   S
    C15    O335      0.54604      .   S
    C97    O336      0.71357      .   S
    C92    O336      0.71357      .   S
    C113   O337      0.72281      .   S
    C196   O337      0.72281      .   S
    C113   O338      0.54880      .   S
    C30    O338      0.54880      .   S
    C110   O339      0.72306      .   S
    C195   O339      0.72306  1_565   S
    C110   O340      0.55175      .   S
    C25    O340      0.55175      .   S
    C110   O341      0.54896      .   S
    C24    O341      0.54896      .   S
    C21    O342      0.54556      .   S
    C106   O342      0.54556      .   S
    C17    O343      0.55611      .   S
    C100   O343      0.55611  1_655   S
    C93    O344      0.71417      .   S
    C92    O344      0.71417      .   S
    C93    O345      0.54634      .   S
    C12    O345      0.54634      .   S
    C92    O346      0.66023      .   S
    C192   O346      0.66023      .   S
    C182   O347      0.88491  1_455   S
    C107   O347      0.88491      .   S
    C181   O348      0.87844  1_455   S
    C101   O348      0.87844      .   S
    C106   O349      0.69773  1_455   S
    C107   O349      0.69773  1_545   S
    C106   O350      0.70897  1_455   S
    C105   O350      0.70897      .   S
    C100   O351      0.69642      .   S
    C99    O351      0.69642      .   S
    C100   O352      0.70015      .   S
    C101   O352      0.70015      .   S
    C20    O353      0.54602      .   S
    C105   O353      0.54602      .   S
    C16    O354      0.54626      .   S
    C99    O354      0.54626      .   S
    C107   O355      0.69789      .   S
    C108   O355      0.69789      .   S
    C105   O356      0.71466      .   S
    C104   O356      0.71466      .   S
    C99    O357      0.71461      .   S
    C98    O357      0.71461      .   S
    C101   O358      0.69783      .   S
    C102   O358      0.69783      .   S
    C192   O359      1.35809      .   S
    C11    O359      1.35809      .   S
    C108   O360      0.54512      .   S
    C22    O360      0.54512      .   S
    C108   O361      0.69756      .   S
    C109   O361      0.69756  1_565   S
    C102   O362      0.54519      .   S
    C18    O362      0.54519      .   S
    C102   O363      0.69791      .   S
    C103   O363      0.69791      .   S
    C104   O364      0.71490      .   S
    C109   O364      0.71490      .   S
    C104   O365      0.65781      .   S
    C194   O365      0.65781      .   S
    C98    O366      0.71502      .   S
    C103   O366      0.71502      .   S
    C98    O367      0.65768      .   S
    C193   O367      0.65768      .   S
    C109   O368      0.54670      .   S
    C23    O368      0.54670      .   S
    C103   O369      0.54654      .   S
    C19    O369      0.54654      .   S
    C79    O370      0.54657      .   S
    C169   O370      0.54657      .   S
    C83    O371      0.54676      .   S
    C175   O371      0.54676      .   S
    C2     O372      1.35954      .   S
    C207   O372      1.35954      .   S
    C209   O373      0.65787      .   S
    C170   O373      0.65787      .   S
    C208   O374      0.65762      .   S
    C164   O374      0.65762      .   S
    C169   O375      0.71507      .   S
    C164   O375      0.71507      .   S
    C169   O376      0.69793      .   S
    C168   O376      0.69793      .   S
    C175   O377      0.71487      .   S
    C170   O377      0.71487      .   S
    C175   O378      0.69757  1_565   S
    C174   O378      0.69757      .   S
    C78    O379      0.54518      .   S
    C168   O379      0.54518      .   S
    C82    O380      0.54512      .   S
    C174   O380      0.54512      .   S
    C170   O381      0.71462      .   S
    C171   O381      0.71462      .   S
    C164   O382      0.71464      .   S
    C165   O382      0.71464      .   S
    C168   O383      0.69782      .   S
    C167   O383      0.69782      .   S
    C174   O384      0.69782      .   S
    C173   O384      0.69782      .   S
    C207   O385      0.66014      .   S
    C158   O385      0.66014      .   S
    C167   O386      0.70016      .   S
    C166   O386      0.70016      .   S
    C167   O387      0.87592      .   S
    C190   O387      0.87592      .   S
    C165   O388      0.54627      .   S
    C76    O388      0.54627      .   S
    C165   O389      0.69639      .   S
    C166   O389      0.69639      .   S
    C171   O390      0.54600      .   S
    C80    O390      0.54600      .   S
    C171   O391      0.69683      .   S
    C172   O391      0.69683      .   S
    C173   O392      0.70012  1_545   S
    C172   O392      0.70012      .   S
    C173   O393      0.87726      .   S
    C191   O393      0.87726      .   S
    C166   O394      0.54497      .   S
    C77    O394      0.54497      .   S
    C72    O395      0.54633      .   S
    C159   O395      0.54633      .   S
    C172   O396      0.54558      .   S
    C81    O396      0.54558      .   S
    C183   O397      0.87628      .   S
    C117   O397      0.87628  1_455   S
    C90    O398      0.54867      .   S
    C179   O398      0.54867  1_655   S
    C158   O399      0.71262      .   S
    C159   O399      0.71262  1_455   S
    C158   O400      0.71359      .   S
    C163   O400      0.71359      .   S
    C84    O401      0.54809      .   S
    C176   O401      0.54809  1_455   S
    C159   O402      0.69720      .   S
    C160   O402      0.69720      .   S
    C85    O403      0.55182      .   S
    C176   O403      0.55182      .   S
    C210   O404      0.72344  1_565   S
    C176   O404      0.72344  1_455   S
    C210   O405      0.72043  1_655   S
    C177   O405      0.72043      .   S
    C211   O406      0.72282      .   S
    C179   O406      0.72282      .   S
    C75    O407      0.54605      .   S
    C163   O407      0.54605      .   S
    C34    O408      0.54493      .   S
    C118   O408      0.54493      .   S
    C179   O409      0.55187      .   S
    C91    O409      0.55187      .   S
    C179   O410      0.75842  1_655   S
    C134   O410      0.75842      .   S
    C117   O411      0.69955      .   S
    C118   O411      0.69955      .   S
    C48    O412      0.55237      .   S
    C134   O412      0.55237      .   S
    C160   O413      0.54524      .   S
    C73    O413      0.54524      .   S
    C87    O414      0.54906      .   S
    C177   O414      0.54906      .   S
    C86    O415      0.55207      .   S
    C177   O415      0.55207      .   S
    C192   O416      1.37305      .   S
    C0     O416      1.37305      .   S
    C192   O417      1.38210      .   S
    C1     O417      1.38210      .   S
    C192   O418      1.47786      .   S
    C2     O418      1.47786      .   S
    C193   O419      1.42471      .   S
    C1     O419      1.42471      .   S
    C193   O420      1.37265      .   S
    C2     O420      1.37265      .   S
    C193   O421      1.43008      .   S
    C10    O421      1.43008      .   S
    C193   O422      1.43054      .   S
    C11    O422      1.43054  1_455   S
    C194   O423      1.44195      .   S
    C0     O423      1.44195      .   S
    C194   O424      1.36594      .   S
    C2     O424      1.36594      .   S
    C194   O425      1.39947      .   S
    C9     O425      1.39947      .   S
    C194   O426      1.43246      .   S
    C11    O426      1.43246  1_455   S
    C195   O427      1.41224      .   S
    C0     O427      1.41224      .   S
    C196   O428      1.41531      .   S
    C1     O428      1.41531      .   S
    C197   O429      1.37520      .   S
    C3     O429      1.37520      .   S
    C197   O430      1.38296      .   S
    C4     O430      1.38296      .   S
    C197   O431      1.47870      .   S
    C5     O431      1.47870  1_655   S
    C198   O432      1.42679      .   S
    C4     O432      1.42679  1_455   S
    C198   O433      1.37103      .   S
    C5     O433      1.37103      .   S
    C198   O434      1.43567      .   S
    C7     O434      1.43567      .   S
    C198   O435      1.42960      .   S
    C8     O435      1.42960      .   S
    C199   O436      1.43690      .   S
    C3     O436      1.43690  1_455   S
    C199   O437      1.36806      .   S
    C5     O437      1.36806      .   S
    C199   O438      1.40462      .   S
    C6     O438      1.40462      .   S
    C199   O439      1.43314      .   S
    C8     O439      1.43314      .   S
    C200   O440      1.41387      .   S
    C3     O440      1.41387      .   S
    C201   O441      1.41594      .   S
    C4     O441      1.41594      .   S
    C202   O442      1.37346      .   S
    C6     O442      1.37346      .   S
    C202   O443      1.38142      .   S
    C7     O443      1.38142      .   S
    C202   O444      1.47446      .   S
    C8     O444      1.47446      .   S
    C203   O445      1.42639      .   S
    C4     O445      1.42639      .   S
    C203   O446      1.43199      .   S
    C5     O446      1.43199  1_655   S
    C203   O447      1.42587      .   S
    C7     O447      1.42587      .   S
    C203   O448      1.37261      .   S
    C8     O448      1.37261      .   S
    C204   O449      1.41090      .   S
    C3     O449      1.41090      .   S
    C204   O450      1.43226      .   S
    C5     O450      1.43226  1_655   S
    C204   O451      1.43663      .   S
    C6     O451      1.43663      .   S
    C204   O452      1.36992      .   S
    C8     O452      1.36992      .   S
    C205   O453      1.41178      .   S
    C6     O453      1.41178      .   S
    C206   O454      1.41971      .   S
    C7     O454      1.41971      .   S
    C207   O455      1.37507      .   S
    C9     O455      1.37507      .   S
    C207   O456      1.38156      .   S
    C10    O456      1.38156      .   S
    C207   O457      1.48128      .   S
    C11    O457      1.48128  1_455   S
    C208   O458      1.43308      .   S
    C1     O458      1.43308      .   S
    C208   O459      1.43036      .   S
    C2     O459      1.43036      .   S
    C208   O460      1.42412      .   S
    C10    O460      1.42412  1_655   S
    C208   O461      1.37180      .   S
    C11    O461      1.37180      .   S
    C209   O462      1.40257      .   S
    C0     O462      1.40257      .   S
    C209   O463      1.43310      .   S
    C2     O463      1.43310      .   S
    C209   O464      1.43778      .   S
    C9     O464      1.43778  1_655   S
    C209   O465      1.36734      .   S
    C11    O465      1.36734      .   S
    C210   O466      1.40837      .   S
    C9     O466      1.40837      .   S
    C211   O467      1.41412      .   S
    C10    O467      1.41412      .   S
