# CIF file generated by openbabel 2.4.90, see http://openbabel.sf.net
data_I
_chemical_name_common 'VESTA_phase_1'
_cell_length_a 16.158
_cell_length_b 18.104
_cell_length_c 18.807
_cell_angle_alpha 90
_cell_angle_beta 90
_cell_angle_gamma 92.615
_space_group_name_H-M_alt 'P 1'
_space_group_name_Hall 'P 1'
loop_
    _symmetry_equiv_pos_as_xyz
    x,y,z
loop_
    _atom_site_label
    _atom_site_type_symbol
    _atom_site_fract_x
    _atom_site_fract_y
    _atom_site_fract_z
    _atom_site_occupancy
    Zn0     Zn   0.65484   0.35188   0.50350   1.000
    Zn1     Zn   0.82975   0.37721   0.50379   1.000
    Zn2     Zn   0.66517   0.86314   0.00033   1.000
    Zn3     Zn   0.84069   0.88855   0.00000   1.000
    Zn4     Zn   0.36395   0.15953   0.00000   1.000
    Zn5     Zn   0.18843   0.13412   0.00000   1.000
    Zn6     Zn   0.37428   0.67079   0.50400   1.000
    Zn7     Zn   0.19937   0.64546   0.50378   1.000
    H8      H    0.59488   0.51301   0.65860   1.000
    H9      H    0.57762   0.60967   0.75118   1.000
    H10     H    0.64134   0.69789   0.84005   1.000
    H11     H    0.90224   0.69782   0.88185   1.000
    H12     H    0.91873   0.59854   0.79187   1.000
    H13     H    0.85638   0.51539   0.69827   1.000
    H14     H    0.59233   0.51081   0.34511   1.000
    H15     H    0.57560   0.60581   0.25110   1.000
    H16     H    0.63972   0.70033   0.16830   1.000
    H17     H    0.90052   0.75447   0.17908   1.000
    H18     H    0.91659   0.66233   0.27625   1.000
    H19     H    0.85329   0.56433   0.35590   1.000
    H20     H    0.96297   0.30991   0.58526   1.000
    H21     H    0.10983   0.31007   0.58705   1.000
    H22     H    0.24035   0.43355   0.45800   1.000
    H23     H    0.23885   0.30526   0.56603   1.000
    H24     H    0.36771   0.24462   0.57648   1.000
    H25     H    0.52191   0.24766   0.56205   1.000
    H26     H    0.52333   0.45098   0.46160   1.000
    H27     H    0.37150   0.45917   0.47391   1.000
    H28     H    0.11088   0.47278   0.41858   1.000
    H29     H    0.96246   0.46411   0.42316   1.000
    H30     H    0.60562   0.00000   0.85280   1.000
    H31     H    0.56696   0.09822   0.76024   1.000
    H32     H    0.63056   0.18646   0.67132   1.000
    H33     H    0.89145   0.18654   0.62941   1.000
    H34     H    0.90807   0.08730   0.71941   1.000
    H35     H    0.86710   0.00000   0.81300   1.000
    H36     H    0.60280   0.00000   0.15880   1.000
    H37     H    0.56494   0.09459   0.25270   1.000
    H38     H    0.62918   0.18910   0.33550   1.000
    H39     H    0.89000   0.24311   0.32463   1.000
    H40     H    0.90595   0.15094   0.22740   1.000
    H41     H    0.84253   0.05296   0.14784   1.000
    H42     H    0.97395   0.82125   0.92601   1.000
    H43     H    0.12081   0.82140   0.92420   1.000
    H44     H    0.25066   0.94477   0.04576   1.000
    H45     H    0.24983   0.81657   0.94530   1.000
    H46     H    0.37869   0.75588   0.93504   1.000
    H47     H    0.53288   0.75892   0.94953   1.000
    H48     H    0.53364   0.96224   0.04216   1.000
    H49     H    0.38182   0.97044   0.02984   1.000
    H50     H    0.12116   0.98399   0.08521   1.000
    H51     H    0.97276   0.97534   0.08055   1.000
    H52     H    0.42350   0.99845   0.15477   1.000
    H53     H    0.46216   0.92446   0.24733   1.000
    H54     H    0.39856   0.83621   0.33624   1.000
    H55     H    0.13767   0.83613   0.37815   1.000
    H56     H    0.12105   0.93536   0.28815   1.000
    H57     H    0.16201   0.99591   0.19447   1.000
    H58     H    0.42632   0.00052   0.84876   1.000
    H59     H    0.46417   0.92809   0.75481   1.000
    H60     H    0.39993   0.83358   0.67203   1.000
    H61     H    0.13911   0.77955   0.68294   1.000
    H62     H    0.12317   0.87173   0.78009   1.000
    H63     H    0.18659   0.96971   0.85973   1.000
    H64     H    0.05516   0.20142   0.08156   1.000
    H65     H    0.90831   0.20127   0.08329   1.000
    H66     H    0.77846   0.07790   0.96180   1.000
    H67     H    0.77928   0.20611   0.06222   1.000
    H68     H    0.65043   0.26679   0.07252   1.000
    H69     H    0.49623   0.26375   0.05803   1.000
    H70     H    0.49547   0.06043   0.96540   1.000
    H71     H    0.64730   0.05223   0.97772   1.000
    H72     H    0.90795   0.03869   0.92230   1.000
    H73     H    0.05636   0.04733   0.92701   1.000
    H74     H    0.43424   0.50967   0.34888   1.000
    H75     H    0.45149   0.41301   0.25638   1.000
    H76     H    0.38778   0.32478   0.16751   1.000
    H77     H    0.12687   0.32485   0.12572   1.000
    H78     H    0.11038   0.42413   0.21570   1.000
    H79     H    0.17274   0.50729   0.30900   1.000
    H80     H    0.43679   0.51186   0.66240   1.000
    H81     H    0.45352   0.41687   0.75640   1.000
    H82     H    0.38940   0.32234   0.83924   1.000
    H83     H    0.12859   0.26820   0.82848   1.000
    H84     H    0.11252   0.36034   0.73131   1.000
    H85     H    0.17582   0.45834   0.65163   1.000
    H86     H    0.06615   0.71276   0.42230   1.000
    H87     H    0.91929   0.71260   0.42051   1.000
    H88     H    0.78877   0.58912   0.54952   1.000
    H89     H    0.79026   0.71741   0.44153   1.000
    H90     H    0.66141   0.77805   0.43108   1.000
    H91     H    0.50721   0.77501   0.44551   1.000
    H92     H    0.50579   0.57169   0.54589   1.000
    H93     H    0.65762   0.56350   0.53365   1.000
    H94     H    0.91824   0.54989   0.58899   1.000
    H95     H    0.06665   0.55856   0.58440   1.000
    C96     C    0.73682   0.45676   0.61188   1.000
    C97     C    0.72744   0.51018   0.67205   1.000
    C98     C    0.64786   0.53608   0.68827   1.000
    C99     C    0.63868   0.58923   0.73954   1.000
    C100    C    0.70837   0.61904   0.77700   1.000
    C101    C    0.70152   0.67551   0.82914   1.000
    C102    C    0.77039   0.70394   0.86540   1.000
    C103    C    0.84925   0.67528   0.85191   1.000
    C104    C    0.85803   0.62033   0.80231   1.000
    C105    C    0.78857   0.59120   0.76337   1.000
    C106    C    0.79589   0.53674   0.71000   1.000
    C107    C    0.76197   0.76570   0.91781   1.000
    C108    C    0.73240   0.47415   0.41208   1.000
    C109    C    0.72435   0.53211   0.35570   1.000
    C110    C    0.64534   0.54431   0.32594   1.000
    C111    C    0.63645   0.59676   0.27392   1.000
    C112    C    0.70617   0.63956   0.24830   1.000
    C113    C    0.69967   0.69188   0.19280   1.000
    C114    C    0.76870   0.73211   0.16811   1.000
    C115    C    0.84739   0.72183   0.19940   1.000
    C116    C    0.85581   0.67106   0.25314   1.000
    C117    C    0.78620   0.62804   0.27876   1.000
    C118    C    0.79303   0.57384   0.33244   1.000
    C119    C    0.76078   0.78530   0.10736   1.000
    C120    C    0.00000   0.34456   0.54908   1.000
    C121    C    0.07886   0.34493   0.54910   1.000
    C122    C    0.12432   0.39004   0.50054   1.000
    C123    C    0.21419   0.39248   0.49510   1.000
    C124    C    0.26498   0.34803   0.53054   1.000
    C125    C    0.35485   0.35051   0.52400   1.000
    C126    C    0.39972   0.29148   0.55035   1.000
    C127    C    0.48514   0.29236   0.54244   1.000
    C128    C    0.48581   0.40657   0.48646   1.000
    C129    C    0.40073   0.40984   0.49267   1.000
    C130    C    0.07859   0.43467   0.45513   1.000
    C131    C    0.99994   0.43087   0.45788   1.000
    C132    C    0.74762   0.96810   0.89954   1.000
    C133    C    0.73818   0.00000   0.83935   1.000
    C134    C    0.63731   0.02473   0.82316   1.000
    C135    C    0.62805   0.07784   0.77186   1.000
    C136    C    0.69769   0.10767   0.73357   1.000
    C137    C    0.69076   0.16411   0.68221   1.000
    C138    C    0.75959   0.19259   0.64593   1.000
    C139    C    0.83848   0.16397   0.65937   1.000
    C140    C    0.84734   0.10905   0.70899   1.000
    C141    C    0.77793   0.07990   0.74798   1.000
    C142    C    0.78533   0.02548   0.80130   1.000
    C143    C    0.75111   0.25435   0.59353   1.000
    C144    C    0.74281   0.98543   0.09173   1.000
    C145    C    0.71357   0.02081   0.14808   1.000
    C146    C    0.63459   0.03305   0.17794   1.000
    C147    C    0.62577   0.08551   0.22996   1.000
    C148    C    0.69553   0.12828   0.25554   1.000
    C149    C    0.68911   0.18062   0.31094   1.000
    C150    C    0.75818   0.22082   0.33568   1.000
    C151    C    0.83683   0.21050   0.30435   1.000
    C152    C    0.84518   0.15970   0.25062   1.000
    C153    C    0.77553   0.11672   0.22504   1.000
    C154    C    0.78229   0.06250   0.17136   1.000
    C155    C    0.75032   0.27402   0.39642   1.000
    C156    C    0.00000   0.85589   0.96220   1.000
    C157    C    0.08983   0.85625   0.96219   1.000
    C158    C    0.13464   0.90127   0.00322   1.000
    C159    C    0.22452   0.90371   0.00870   1.000
    C160    C    0.27594   0.85934   0.98085   1.000
    C161    C    0.36581   0.86181   0.98723   1.000
    C162    C    0.41069   0.80276   0.96114   1.000
    C163    C    0.49610   0.80364   0.96909   1.000
    C164    C    0.49613   0.91781   0.01740   1.000
    C165    C    0.41106   0.92109   0.01115   1.000
    C166    C    0.08890   0.94589   0.04863   1.000
    C167    C    0.00000   0.94211   0.04584   1.000
    C168    C    0.28149   0.05457   0.10803   1.000
    C169    C    0.29094   0.00118   0.16821   1.000
    C170    C    0.39181   0.99795   0.18440   1.000
    C171    C    0.40107   0.94484   0.23570   1.000
    C172    C    0.33143   0.91500   0.27000   1.000
    C173    C    0.33836   0.85856   0.32535   1.000
    C174    C    0.26953   0.83008   0.36160   1.000
    C175    C    0.19063   0.85870   0.34819   1.000
    C176    C    0.18178   0.91362   0.29857   1.000
    C177    C    0.25119   0.94277   0.25958   1.000
    C178    C    0.24378   0.99719   0.20627   1.000
    C179    C    0.27800   0.76833   0.41403   1.000
    C180    C    0.28630   0.03724   0.91583   1.000
    C181    C    0.31554   0.00000   0.85948   1.000
    C182    C    0.39453   0.98963   0.82962   1.000
    C183    C    0.40335   0.93717   0.77760   1.000
    C184    C    0.33358   0.89439   0.75202   1.000
    C185    C    0.34001   0.84206   0.69662   1.000
    C186    C    0.27094   0.80185   0.67189   1.000
    C187    C    0.19229   0.81217   0.70322   1.000
    C188    C    0.18393   0.86297   0.75695   1.000
    C189    C    0.25358   0.90596   0.78252   1.000
    C190    C    0.24683   0.96017   0.83621   1.000
    C191    C    0.27880   0.74865   0.61114   1.000
    C192    C    0.01775   0.16678   0.04536   1.000
    C193    C    0.93929   0.16642   0.04537   1.000
    C194    C    0.89447   0.12140   0.00000   1.000
    C195    C    0.80460   0.11897   0.99887   1.000
    C196    C    0.75318   0.16333   0.02671   1.000
    C197    C    0.66331   0.16086   0.02030   1.000
    C198    C    0.61842   0.21992   0.04642   1.000
    C199    C    0.53302   0.21904   0.03847   1.000
    C200    C    0.53299   0.10486   0.99016   1.000
    C201    C    0.61806   0.10158   0.99641   1.000
    C202    C    0.94022   0.07678   0.95890   1.000
    C203    C    0.01887   0.08057   0.96172   1.000
    C204    C    0.29230   0.56591   0.39569   1.000
    C205    C    0.30168   0.51249   0.33551   1.000
    C206    C    0.38125   0.48660   0.31929   1.000
    C207    C    0.39044   0.43344   0.26802   1.000
    C208    C    0.32075   0.40363   0.22977   1.000
    C209    C    0.32760   0.34717   0.17840   1.000
    C210    C    0.25873   0.31873   0.14217   1.000
    C211    C    0.17987   0.34739   0.15565   1.000
    C212    C    0.17109   0.40234   0.20520   1.000
    C213    C    0.24055   0.43148   0.24400   1.000
    C214    C    0.23323   0.48593   0.29749   1.000
    C215    C    0.26714   0.25698   0.08976   1.000
    C216    C    0.29672   0.54853   0.59540   1.000
    C217    C    0.30476   0.49056   0.65182   1.000
    C218    C    0.38378   0.47836   0.68163   1.000
    C219    C    0.39267   0.42591   0.73364   1.000
    C220    C    0.32295   0.38311   0.75927   1.000
    C221    C    0.32945   0.33079   0.81468   1.000
    C222    C    0.26042   0.29056   0.83945   1.000
    C223    C    0.18173   0.30083   0.80810   1.000
    C224    C    0.17331   0.35161   0.75442   1.000
    C225    C    0.24292   0.39463   0.72880   1.000
    C226    C    0.23609   0.44883   0.67512   1.000
    C227    C    0.26834   0.23737   0.90020   1.000
    C228    C    0.02871   0.67811   0.45848   1.000
    C229    C    0.95025   0.67774   0.45844   1.000
    C230    C    0.90480   0.63263   0.50702   1.000
    C231    C    0.81492   0.63019   0.51240   1.000
    C232    C    0.76414   0.67464   0.47703   1.000
    C233    C    0.67427   0.67216   0.48337   1.000
    C234    C    0.62939   0.73119   0.45721   1.000
    C235    C    0.54398   0.73031   0.46510   1.000
    C236    C    0.54331   0.61610   0.52110   1.000
    C237    C    0.62839   0.61283   0.51489   1.000
    C238    C    0.95052   0.58800   0.55243   1.000
    C239    C    0.02918   0.59180   0.54968   1.000
    N240    N    0.95727   0.38629   0.50379   1.000
    N241    N    0.52795   0.34870   0.51031   1.000
    N242    N    0.96759   0.89754   0.99991   1.000
    N243    N    0.53891   0.86001   0.00000   1.000
    N244    N    0.06152   0.12513   0.00000   1.000
    N245    N    0.49021   0.16267   0.00638   1.000
    N246    N    0.07184   0.63638   0.50377   1.000
    N247    N    0.50116   0.67397   0.49725   1.000
    O248    O    0.67076   0.43662   0.57886   1.000
    O249    O    0.80975   0.43783   0.59640   1.000
    O250    O    0.82853   0.79283   0.94566   1.000
    O251    O    0.68912   0.78671   0.93002   1.000
    O252    O    0.80300   0.46889   0.44179   1.000
    O253    O    0.66726   0.43461   0.42626   1.000
    O254    O    0.69025   0.78692   0.07728   1.000
    O255    O    0.82545   0.82427   0.09043   1.000
    O256    O    0.68159   0.94799   0.93260   1.000
    O257    O    0.82056   0.94915   0.91496   1.000
    O258    O    0.81765   0.28151   0.56568   1.000
    O259    O    0.67825   0.27534   0.58135   1.000
    O260    O    0.81340   0.98017   0.06199   1.000
    O261    O    0.67766   0.94590   0.07758   1.000
    O262    O    0.67980   0.27566   0.42653   1.000
    O263    O    0.81500   0.31298   0.41334   1.000
    O264    O    0.34753   0.07468   0.07497   1.000
    O265    O    0.20855   0.07352   0.09260   1.000
    O266    O    0.21146   0.74116   0.44189   1.000
    O267    O    0.35087   0.74734   0.42621   1.000
    O268    O    0.21571   0.04250   0.94550   1.000
    O269    O    0.35145   0.07677   0.92999   1.000
    O270    O    0.34931   0.74701   0.58104   1.000
    O271    O    0.21411   0.70969   0.59423   1.000
    O272    O    0.35835   0.58605   0.42870   1.000
    O273    O    0.21936   0.58485   0.41116   1.000
    O274    O    0.20059   0.22984   0.06191   1.000
    O275    O    0.34000   0.23596   0.07755   1.000
    O276    O    0.22611   0.55378   0.56577   1.000
    O277    O    0.36186   0.58806   0.58131   1.000
    O278    O    0.33886   0.23576   0.93029   1.000
    O279    O    0.20367   0.19840   0.91714   1.000
loop_
    _geom_bond_atom_site_label_1
    _geom_bond_atom_site_label_2
    _geom_bond_distance
    _geom_bond_site_symmetry_2
    _ccdc_geom_bond_type
    Zn3    O260      2.09082      .   S
    Zn3    O255      2.06912      .   S
    Zn3    O257      1.97480  1_554   S
    Zn3    O250      2.01371  1_554   S
    Zn3    N242      2.04958  1_554   S
    Zn4    N245      2.04180      .   S
    Zn4    O264      2.09305      .   S
    Zn4    O275      2.05923      .   S
    Zn4    O269      1.99792  1_554   S
    Zn4    O278      1.95919  1_554   S
    C194   C193      1.36482      .   S
    C194   C202      1.36047  1_554   S
    C194   C195      1.45101  1_554   S
    N244   C192      1.35836      .   S
    N244   C203      1.26233  1_554   S
    N244   Zn5       2.04958      .   S
    N243   Zn2       2.03829      .   S
    N243   C164      1.32141      .   S
    N243   C163      1.33919  1_554   S
    Zn2    O254      2.05282      .   S
    Zn2    O261      2.09015      .   S
    Zn2    O251      1.96514  1_554   S
    Zn2    O256      2.00388  1_554   S
    C158   C159      1.45451      .   S
    C158   C166      1.40812      .   S
    C158   C157      1.31537  1_554   S
    N245   C199      1.34896      .   S
    N245   C200      1.31609  1_554   S
    C159   H44       1.09005      .   S
    C159   C160      1.29256  1_554   S
    C165   C164      1.38359      .   S
    C165   H49       1.08794      .   S
    C165   C161      1.34788  1_554   S
    C164   H48       1.08938      .   S
    C197   C196      1.45577      .   S
    C197   C198      1.40759      .   S
    C197   C201      1.34768  1_554   S
    C196   H67       1.09259      .   S
    C196   C195      1.29248  1_554   S
    C199   C198      1.38743      .   S
    C199   H69       1.08984      .   S
    C192   C193      1.26743  1_455   S
    C192   H64       1.08988      .   S
    C193   H65       1.08910      .   S
    C167   C166      1.43594      .   S
    C167   H51       1.00305  1_455   S
    C167   N242      1.27778  1_454   S
    C198   H68       1.09020      .   S
    C166   H50       1.08990      .   S
    O274   C215      1.27436      .   S
    O274   Zn5       2.08955      .   S
    O260   C144      1.27779      .   S
    O264   C168      1.27369      .   S
    O254   C119      1.27380      .   S
    O275   C215      1.27441      .   S
    O261   C144      1.27369      .   S
    C215   C210      1.50127      .   S
    O255   C119      1.27428      .   S
    C144   C145      1.33571  1_565   S
    O265   C168      1.27582      .   S
    O265   Zn5       2.09162      .   S
    C119   C114      1.50336      .   S
    C168   C169      1.50069      .   S
    H77    C211      1.08852      .   S
    C210   C211      1.42039      .   S
    C210   C209      1.38398      .   S
    H41    C154      1.09018      .   S
    C145   C154      1.38482      .   S
    C145   C146      1.42091      .   S
    H52    C170      0.75656      .   S
    C211   C212      1.37516      .   S
    H36    C146      0.85052      .   S
    H76    C209      1.08977      .   S
    C114   C113      1.38419      .   S
    C114   C115      1.42093      .   S
    C169   C170      1.66170  1_545   S
    C169   C178      1.04549  1_545   S
    H16    C113      1.08976      .   S
    C154   C153      1.41571      .   S
    C146   C147      1.37544      .   S
    C209   C208      1.41457      .   S
    H17    C115      1.08908      .   S
    C170   C171      1.37507      .   S
    C113   C112      1.41657      .   S
    H57    C178      1.33891      .   S
    C115   C116      1.37711      .   S
    C212   H78       1.09177      .   S
    C212   C213      1.41992      .   S
    C178   C177      1.41450      .   S
    C153   C152      1.42253      .   S
    C153   C148      1.43823      .   S
    H40    C152      1.09272      .   S
    C208   C213      1.43693      .   S
    C208   C207      1.42164      .   S
    C147   H37       1.09114      .   S
    C147   C148      1.42198      .   S
    C171   H53       1.09155      .   S
    C171   C172      1.38510      .   S
    C213   C214      1.41722      .   S
    C112   C111      1.42199      .   S
    C112   C117      1.43824      .   S
    C152   C151      1.37710      .   S
    H15    C111      1.09198      .   S
    C116   H18       1.09212      .   S
    C116   C117      1.42253      .   S
    C148   C149      1.41528      .   S
    H75    C207      1.09153      .   S
    C177   C172      1.42539      .   S
    C177   C176      1.42128      .   S
    C207   C206      1.37508      .   S
    C172   C173      1.46658      .   S
    C111   C110      1.37549      .   S
    C117   C118      1.41572      .   S
    H56    C176      1.09158      .   S
    C214   H79       1.08909      .   S
    C214   C205      1.38466      .   S
    C176   C175      1.37587      .   S
    C151   H39       1.08903      .   S
    C151   C150      1.42094      .   S
    C149   H38       1.08998      .   S
    C149   C150      1.38480      .   S
    C206   C205      1.42164      .   S
    C206   H74       1.08834      .   S
    C173   H54       1.08983      .   S
    C173   C174      1.38390      .   S
    C110   H14       1.08816      .   S
    C110   C109      1.42047      .   S
    C118   C109      1.38450      .   S
    C118   H19       1.08989      .   S
    C205   C204      1.50089      .   S
    C150   C155      1.50324      .   S
    C175   C174      1.42029      .   S
    C175   H55       1.08850      .   S
    C109   C108      1.50166      .   S
    C174   C179      1.50169      .   S
    C204   O273      1.27583      .   S
    C204   O272      1.27366      .   S
    C155   O263      1.27433      .   S
    C155   O262      1.27392      .   S
    O273   Zn7       2.09165      .   S
    C108   O253      1.27373      .   S
    C108   O252      1.27780      .   S
    O263   Zn1       2.06821      .   S
    C179   O267      1.27435      .   S
    C179   O266      1.27439      .   S
    H28    C130      1.08987      .   S
    H87    C229      1.08916      .   S
    H86    C228      1.08985      .   S
    H29    C131      1.09014      .   S
    O267   Zn6       2.06191      .   S
    O253   Zn0       2.08963      .   S
    O262   Zn0       2.05255      .   S
    O272   Zn6       2.09505      .   S
    H90    C234      1.09023      .   S
    H89    C232      1.09255      .   S
    O252   Zn1       2.08964      .   S
    O266   Zn7       2.08901      .   S
    H91    C235      1.08973      .   S
    C130   C131      1.27068  1_455   S
    C130   C122      1.40805      .   S
    C234   C235      1.38739      .   S
    C234   C233      1.40740      .   S
    C131   N240      1.34961      .   S
    H22    C123      1.09069      .   S
    C229   C228      1.26741  1_655   S
    C229   C230      1.40940      .   S
    C228   N246      1.35279      .   S
    H26    C128      1.08999      .   S
    C235   N247      1.34918      .   S
    H27    C129      1.08798      .   S
    C232   C233      1.45570      .   S
    C232   C231      1.35042      .   S
    C233   C237      1.40784      .   S
    C128   C129      1.38358      .   S
    C128   N241      1.35190      .   S
    C129   C125      1.40634      .   S
    C123   C122      1.45447      .   S
    C123   C124      1.35108      .   S
    N247   Zn6       2.05229      .   S
    N247   C236      1.35190      .   S
    C122   C121      1.40917      .   S
    Zn0    N241      2.05236      .   S
    Zn0    O248      2.09586      .   S
    Zn0    O259      2.06271      .   S
    N246   Zn7       2.05959      .   S
    N246   C239      1.34961      .   S
    Zn7    O276      2.08953      .   S
    Zn7    O271      2.06819      .   S
    Zn1    N240      2.05959      .   S
    Zn1    O258      2.08903      .   S
    Zn1    O249      2.09150      .   S
    N240   C120      1.34926  1_655   S
    Zn6    O270      2.05347      .   S
    Zn6    O277      2.09056      .   S
    C230   C231      1.45440      .   S
    C230   C238      1.40804      .   S
    N241   C127      1.34900      .   S
    C231   H88       1.09093      .   S
    C237   C236      1.38358      .   S
    C237   H93       1.08799      .   S
    C236   H92       1.08943      .   S
    C125   C124      1.45600      .   S
    C125   C126      1.40864      .   S
    C124   H23       1.09245      .   S
    C127   C126      1.38743      .   S
    C127   H25       1.08985      .   S
    C120   C121      1.27397      .   S
    C120   H20       1.08641  1_455   S
    C121   H21       1.08941      .   S
    C239   C238      1.27068  1_455   S
    C239   H95       1.09014      .   S
    C126   H24       1.09024      .   S
    C238   H94       1.08998      .   S
    O258   C143      1.27433      .   S
    O276   C216      1.27714      .   S
    O248   C96       1.27374      .   S
    O270   C191      1.27385      .   S
    O277   C216      1.27337      .   S
    O259   C143      1.27436      .   S
    C143   C138      1.50132      .   S
    O271   C191      1.27428      .   S
    C216   C217      1.50219      .   S
    O249   C96       1.27586      .   S
    C191   C186      1.50338      .   S
    C96    C97       1.50075      .   S
    H33    C139      1.08848      .   S
    C138   C139      1.42039      .   S
    C138   C137      1.38418      .   S
    H85    C226      1.09012      .   S
    C217   C226      1.38473      .   S
    C217   C218      1.42084      .   S
    H8     C98       1.08912      .   S
    C139   C140      1.37587      .   S
    H80    C218      1.08853      .   S
    H32    C137      1.08984      .   S
    C186   C185      1.38474      .   S
    C186   C187      1.42091      .   S
    H60    C185      1.09022      .   S
    C97    C98       1.42166      .   S
    C97    C106      1.38396      .   S
    C226   C225      1.41573      .   S
    C218   C219      1.37537      .   S
    C137   C136      1.41431      .   S
    H61    C187      1.08904      .   S
    C98    C99       1.37507      .   S
    C185   C184      1.41528      .   S
    H13    C106      1.08991      .   S
    C187   C188      1.37711      .   S
    C140   H34       1.09160      .   S
    C140   C141      1.42125      .   S
    C106   C105      1.41563      .   S
    C225   C224      1.42253      .   S
    C225   C220      1.43831      .   S
    H84    C224      1.09212      .   S
    C136   C141      1.43762      .   S
    C136   C135      1.42158      .   S
    C219   H81       1.09152      .   S
    C219   C220      1.42205      .   S
    C99    H9        1.09154      .   S
    C99    C100      1.41415      .   S
    C141   C142      1.41464      .   S
    C184   C183      1.42199      .   S
    C184   C189      1.43823      .   S
    C224   C223      1.37630      .   S
    H59    C183      1.09149      .   S
    C188   H62       1.09212      .   S
    C188   C189      1.42250      .   S
    C220   C221      1.41534      .   S
    H31    C135      1.09152      .   S
    C105   C100      1.43486      .   S
    C105   C104      1.42124      .   S
    C135   C134      1.37504      .   S
    C100   C101      1.42450      .   S
    C183   C182      1.37546      .   S
    C189   C190      1.41583      .   S
    H12    C104      1.09158      .   S
    C142   H35       1.43614      .   S
    C142   C133      1.12842      .   S
    C104   C103      1.37579      .   S
    C223   H83       1.08947      .   S
    C223   C222      1.42139      .   S
    C221   H82       1.09024      .   S
    C221   C222      1.38469      .   S
    C134   C133      1.73670      .   S
    C134   H30       0.86744      .   S
    C101   H10       1.08986      .   S
    C101   C102      1.38426      .   S
    C182   H58       0.65043  1_565   S
    C182   C181      1.41461  1_565   S
    C190   C181      1.36788  1_565   S
    C190   H63       1.09015      .   S
    C133   C132      1.28306  1_545   S
    C222   C227      1.50333      .   S
    C103   C102      1.42043      .   S
    C103   H11       1.08859      .   S
    C181   C180      1.35278      .   S
    C102   C107      1.50127      .   S
    C132   O257      1.27579      .   S
    C132   O256      1.27369      .   S
    C227   O279      1.27432      .   S
    C227   O278      1.27388      .   S
    C180   O269      1.27372      .   S
    C180   O268      1.27723      .   S
    O279   Zn5       1.95378  1_556   S
    C107   O251      1.27441      .   S
    C107   O250      1.27436      .   S
    H72    C202      1.09012      .   S
    H43    C157      1.08998      .   S
    H42    C156      1.00485  1_655   S
    H73    C203      1.09013      .   S
    H46    C162      1.09020      .   S
    H45    C160      1.09305      .   S
    O268   Zn5       2.01566  1_556   S
    H47    C163      1.08983      .   S
    C202   C203      1.27070  1_655   S
    C162   C163      1.38743      .   S
    C162   C161      1.40738      .   S
    H66    C195      1.09015      .   S
    C157   C156      1.45116      .   S
    C156   N242      1.17541  1_455   S
    H70    C200      1.08938      .   S
    H71    C201      1.08795      .   S
    C160   C161      1.45572      .   S
    C200   C201      1.38359      .   S
    Zn0    Zn1       2.84246      .   S
    Zn2    Zn3       2.85237      .   S
    Zn4    Zn5       2.85236      .   S
    Zn6    Zn7       2.84246      .   S
