# CIF file generated by openbabel 2.4.90, see http://openbabel.sf.net
data_I
_chemical_name_common ''
_cell_length_a 16.158
_cell_length_b 18.104
_cell_length_c 18.807
_cell_angle_alpha 90
_cell_angle_beta 90
_cell_angle_gamma 92.615
_space_group_name_H-M_alt 'P 1'
_space_group_name_Hall 'P 1'
loop_
    _symmetry_equiv_pos_as_xyz
    x,y,z
loop_
    _atom_site_label
    _atom_site_type_symbol
    _atom_site_fract_x
    _atom_site_fract_y
    _atom_site_fract_z
    _atom_site_occupancy
    C0      C    0.65484   0.35188   0.50350   1.000
    C1      C    0.82975   0.37721   0.50379   1.000
    C2      C    0.66517   0.86314   0.00033   1.000
    C3      C    0.84069   0.88855   0.00000   1.000
    C4      C    0.36395   0.15953   0.00000   1.000
    C5      C    0.18843   0.13412   0.00000   1.000
    C6      C    0.37428   0.67079   0.50400   1.000
    C7      C    0.19937   0.64546   0.50378   1.000
    C8      C    0.59488   0.51301   0.65860   1.000
    C9      C    0.57762   0.60967   0.75118   1.000
    C10     C    0.64134   0.69789   0.84005   1.000
    C11     C    0.90224   0.69782   0.88185   1.000
    C12     C    0.91873   0.59854   0.79187   1.000
    C13     C    0.85638   0.51539   0.69827   1.000
    C14     C    0.59233   0.51081   0.34511   1.000
    C15     C    0.57560   0.60581   0.25110   1.000
    C16     C    0.63972   0.70033   0.16830   1.000
    C17     C    0.90052   0.75447   0.17908   1.000
    C18     C    0.91659   0.66233   0.27625   1.000
    C19     C    0.85329   0.56433   0.35590   1.000
    C20     C    0.96297   0.30991   0.58526   1.000
    C21     C    0.10983   0.31007   0.58705   1.000
    C22     C    0.24035   0.43355   0.45800   1.000
    C23     C    0.23885   0.30526   0.56603   1.000
    C24     C    0.36771   0.24462   0.57648   1.000
    C25     C    0.52191   0.24766   0.56205   1.000
    C26     C    0.52333   0.45098   0.46160   1.000
    C27     C    0.37150   0.45917   0.47391   1.000
    C28     C    0.11088   0.47278   0.41858   1.000
    C29     C    0.96246   0.46411   0.42316   1.000
    C30     C    0.60562   0.00000   0.85280   1.000
    C31     C    0.56696   0.09822   0.76024   1.000
    C32     C    0.63056   0.18646   0.67132   1.000
    C33     C    0.89145   0.18654   0.62941   1.000
    C34     C    0.90807   0.08730   0.71941   1.000
    C35     C    0.86710   0.00000   0.81300   1.000
    C36     C    0.60280   0.00000   0.15880   1.000
    C37     C    0.56494   0.09459   0.25270   1.000
    C38     C    0.62918   0.18910   0.33550   1.000
    C39     C    0.89000   0.24311   0.32463   1.000
    C40     C    0.90595   0.15094   0.22740   1.000
    C41     C    0.84253   0.05296   0.14784   1.000
    C42     C    0.97395   0.82125   0.92601   1.000
    C43     C    0.12081   0.82140   0.92420   1.000
    C44     C    0.25066   0.94477   0.04576   1.000
    C45     C    0.24983   0.81657   0.94530   1.000
    C46     C    0.37869   0.75588   0.93504   1.000
    C47     C    0.53288   0.75892   0.94953   1.000
    C48     C    0.53364   0.96224   0.04216   1.000
    C49     C    0.38182   0.97044   0.02984   1.000
    C50     C    0.12116   0.98399   0.08521   1.000
    C51     C    0.97276   0.97534   0.08055   1.000
    C52     C    0.42350   0.99845   0.15477   1.000
    C53     C    0.46216   0.92446   0.24733   1.000
    C54     C    0.39856   0.83621   0.33624   1.000
    C55     C    0.13767   0.83613   0.37815   1.000
    C56     C    0.12105   0.93536   0.28815   1.000
    C57     C    0.16201   0.99591   0.19447   1.000
    C58     C    0.42632   0.00052   0.84876   1.000
    C59     C    0.46417   0.92809   0.75481   1.000
    C60     C    0.39993   0.83358   0.67203   1.000
    C61     C    0.13911   0.77955   0.68294   1.000
    C62     C    0.12317   0.87173   0.78009   1.000
    C63     C    0.18659   0.96971   0.85973   1.000
    C64     C    0.05516   0.20142   0.08156   1.000
    C65     C    0.90831   0.20127   0.08329   1.000
    C66     C    0.77846   0.07790   0.96180   1.000
    C67     C    0.77928   0.20611   0.06222   1.000
    C68     C    0.65043   0.26679   0.07252   1.000
    C69     C    0.49623   0.26375   0.05803   1.000
    C70     C    0.49547   0.06043   0.96540   1.000
    C71     C    0.64730   0.05223   0.97772   1.000
    C72     C    0.90795   0.03869   0.92230   1.000
    C73     C    0.05636   0.04733   0.92701   1.000
    C74     C    0.43424   0.50967   0.34888   1.000
    C75     C    0.45149   0.41301   0.25638   1.000
    C76     C    0.38778   0.32478   0.16751   1.000
    C77     C    0.12687   0.32485   0.12572   1.000
    C78     C    0.11038   0.42413   0.21570   1.000
    C79     C    0.17274   0.50729   0.30900   1.000
    C80     C    0.43679   0.51186   0.66240   1.000
    C81     C    0.45352   0.41687   0.75640   1.000
    C82     C    0.38940   0.32234   0.83924   1.000
    C83     C    0.12859   0.26820   0.82848   1.000
    C84     C    0.11252   0.36034   0.73131   1.000
    C85     C    0.17582   0.45834   0.65163   1.000
    C86     C    0.06615   0.71276   0.42230   1.000
    C87     C    0.91929   0.71260   0.42051   1.000
    C88     C    0.78877   0.58912   0.54952   1.000
    C89     C    0.79026   0.71741   0.44153   1.000
    C90     C    0.66141   0.77805   0.43108   1.000
    C91     C    0.50721   0.77501   0.44551   1.000
    C92     C    0.50579   0.57169   0.54589   1.000
    C93     C    0.65762   0.56350   0.53365   1.000
    C94     C    0.91824   0.54989   0.58899   1.000
    C95     C    0.06665   0.55856   0.58440   1.000
    C96     C    0.73682   0.45676   0.61188   1.000
    C97     C    0.72744   0.51018   0.67205   1.000
    C98     C    0.64786   0.53608   0.68827   1.000
    C99     C    0.63868   0.58923   0.73954   1.000
    C100    C    0.70837   0.61904   0.77700   1.000
    C101    C    0.70152   0.67551   0.82914   1.000
    C102    C    0.77039   0.70394   0.86540   1.000
    C103    C    0.84925   0.67528   0.85191   1.000
    C104    C    0.85803   0.62033   0.80231   1.000
    C105    C    0.78857   0.59120   0.76337   1.000
    C106    C    0.79589   0.53674   0.71000   1.000
    C107    C    0.76197   0.76570   0.91781   1.000
    C108    C    0.73240   0.47415   0.41208   1.000
    C109    C    0.72435   0.53211   0.35570   1.000
    C110    C    0.64534   0.54431   0.32594   1.000
    C111    C    0.63645   0.59676   0.27392   1.000
    C112    C    0.70617   0.63956   0.24830   1.000
    C113    C    0.69967   0.69188   0.19280   1.000
    C114    C    0.76870   0.73211   0.16811   1.000
    C115    C    0.84739   0.72183   0.19940   1.000
    C116    C    0.85581   0.67106   0.25314   1.000
    C117    C    0.78620   0.62804   0.27876   1.000
    C118    C    0.79303   0.57384   0.33244   1.000
    C119    C    0.76078   0.78530   0.10736   1.000
    C120    C    0.00000   0.34456   0.54908   1.000
    C121    C    0.07886   0.34493   0.54910   1.000
    C122    C    0.12432   0.39004   0.50054   1.000
    C123    C    0.21419   0.39248   0.49510   1.000
    C124    C    0.26498   0.34803   0.53054   1.000
    C125    C    0.35485   0.35051   0.52400   1.000
    C126    C    0.39972   0.29148   0.55035   1.000
    C127    C    0.48514   0.29236   0.54244   1.000
    C128    C    0.48581   0.40657   0.48646   1.000
    C129    C    0.40073   0.40984   0.49267   1.000
    C130    C    0.07859   0.43467   0.45513   1.000
    C131    C    0.99994   0.43087   0.45788   1.000
    C132    C    0.74762   0.96810   0.89954   1.000
    C133    C    0.73818   0.00000   0.83935   1.000
    C134    C    0.63731   0.02473   0.82316   1.000
    C135    C    0.62805   0.07784   0.77186   1.000
    C136    C    0.69769   0.10767   0.73357   1.000
    C137    C    0.69076   0.16411   0.68221   1.000
    C138    C    0.75959   0.19259   0.64593   1.000
    C139    C    0.83848   0.16397   0.65937   1.000
    C140    C    0.84734   0.10905   0.70899   1.000
    C141    C    0.77793   0.07990   0.74798   1.000
    C142    C    0.78533   0.02548   0.80130   1.000
    C143    C    0.75111   0.25435   0.59353   1.000
    C144    C    0.74281   0.98543   0.09173   1.000
    C145    C    0.71357   0.02081   0.14808   1.000
    C146    C    0.63459   0.03305   0.17794   1.000
    C147    C    0.62577   0.08551   0.22996   1.000
    C148    C    0.69553   0.12828   0.25554   1.000
    C149    C    0.68911   0.18062   0.31094   1.000
    C150    C    0.75818   0.22082   0.33568   1.000
    C151    C    0.83683   0.21050   0.30435   1.000
    C152    C    0.84518   0.15970   0.25062   1.000
    C153    C    0.77553   0.11672   0.22504   1.000
    C154    C    0.78229   0.06250   0.17136   1.000
    C155    C    0.75032   0.27402   0.39642   1.000
    C156    C    0.00000   0.85589   0.96220   1.000
    C157    C    0.08983   0.85625   0.96219   1.000
    C158    C    0.13464   0.90127   0.00322   1.000
    C159    C    0.22452   0.90371   0.00870   1.000
    C160    C    0.27594   0.85934   0.98085   1.000
    C161    C    0.36581   0.86181   0.98723   1.000
    C162    C    0.41069   0.80276   0.96114   1.000
    C163    C    0.49610   0.80364   0.96909   1.000
    C164    C    0.49613   0.91781   0.01740   1.000
    C165    C    0.41106   0.92109   0.01115   1.000
    C166    C    0.08890   0.94589   0.04863   1.000
    C167    C    0.00000   0.94211   0.04584   1.000
    C168    C    0.28149   0.05457   0.10803   1.000
    C169    C    0.29094   0.00118   0.16821   1.000
    C170    C    0.39181   0.99795   0.18440   1.000
    C171    C    0.40107   0.94484   0.23570   1.000
    C172    C    0.33143   0.91500   0.27000   1.000
    C173    C    0.33836   0.85856   0.32535   1.000
    C174    C    0.26953   0.83008   0.36160   1.000
    C175    C    0.19063   0.85870   0.34819   1.000
    C176    C    0.18178   0.91362   0.29857   1.000
    C177    C    0.25119   0.94277   0.25958   1.000
    C178    C    0.24378   0.99719   0.20627   1.000
    C179    C    0.27800   0.76833   0.41403   1.000
    C180    C    0.28630   0.03724   0.91583   1.000
    C181    C    0.31554   0.00000   0.85948   1.000
    C182    C    0.39453   0.98963   0.82962   1.000
    C183    C    0.40335   0.93717   0.77760   1.000
    C184    C    0.33358   0.89439   0.75202   1.000
    C185    C    0.34001   0.84206   0.69662   1.000
    C186    C    0.27094   0.80185   0.67189   1.000
    C187    C    0.19229   0.81217   0.70322   1.000
    C188    C    0.18393   0.86297   0.75695   1.000
    C189    C    0.25358   0.90596   0.78252   1.000
    C190    C    0.24683   0.96017   0.83621   1.000
    C191    C    0.27880   0.74865   0.61114   1.000
    C192    C    0.01775   0.16678   0.04536   1.000
    C193    C    0.93929   0.16642   0.04537   1.000
    C194    C    0.89447   0.12140   0.00000   1.000
    C195    C    0.80460   0.11897   0.99887   1.000
    C196    C    0.75318   0.16333   0.02671   1.000
    C197    C    0.66331   0.16086   0.02030   1.000
    C198    C    0.61842   0.21992   0.04642   1.000
    C199    C    0.53302   0.21904   0.03847   1.000
    C200    C    0.53299   0.10486   0.99016   1.000
    C201    C    0.61806   0.10158   0.99641   1.000
    C202    C    0.94022   0.07678   0.95890   1.000
    C203    C    0.01887   0.08057   0.96172   1.000
    C204    C    0.29230   0.56591   0.39569   1.000
    C205    C    0.30168   0.51249   0.33551   1.000
    C206    C    0.38125   0.48660   0.31929   1.000
    C207    C    0.39044   0.43344   0.26802   1.000
    C208    C    0.32075   0.40363   0.22977   1.000
    C209    C    0.32760   0.34717   0.17840   1.000
    C210    C    0.25873   0.31873   0.14217   1.000
    C211    C    0.17987   0.34739   0.15565   1.000
    C212    C    0.17109   0.40234   0.20520   1.000
    C213    C    0.24055   0.43148   0.24400   1.000
    C214    C    0.23323   0.48593   0.29749   1.000
    C215    C    0.26714   0.25698   0.08976   1.000
    C216    C    0.29672   0.54853   0.59540   1.000
    C217    C    0.30476   0.49056   0.65182   1.000
    C218    C    0.38378   0.47836   0.68163   1.000
    C219    C    0.39267   0.42591   0.73364   1.000
    C220    C    0.32295   0.38311   0.75927   1.000
    C221    C    0.32945   0.33079   0.81468   1.000
    C222    C    0.26042   0.29056   0.83945   1.000
    C223    C    0.18173   0.30083   0.80810   1.000
    C224    C    0.17331   0.35161   0.75442   1.000
    C225    C    0.24292   0.39463   0.72880   1.000
    C226    C    0.23609   0.44883   0.67512   1.000
    C227    C    0.26834   0.23737   0.90020   1.000
    C228    C    0.02871   0.67811   0.45848   1.000
    C229    C    0.95025   0.67774   0.45844   1.000
    C230    C    0.90480   0.63263   0.50702   1.000
    C231    C    0.81492   0.63019   0.51240   1.000
    C232    C    0.76414   0.67464   0.47703   1.000
    C233    C    0.67427   0.67216   0.48337   1.000
    C234    C    0.62939   0.73119   0.45721   1.000
    C235    C    0.54398   0.73031   0.46510   1.000
    C236    C    0.54331   0.61610   0.52110   1.000
    C237    C    0.62839   0.61283   0.51489   1.000
    C238    C    0.95052   0.58800   0.55243   1.000
    C239    C    0.02918   0.59180   0.54968   1.000
    C240    C    0.95727   0.38629   0.50379   1.000
    C241    C    0.52795   0.34870   0.51031   1.000
    C242    C    0.96759   0.89754   0.99991   1.000
    C243    C    0.53891   0.86001   0.00000   1.000
    C244    C    0.06152   0.12513   0.00000   1.000
    C245    C    0.49021   0.16267   0.00638   1.000
    C246    C    0.07184   0.63638   0.50377   1.000
    C247    C    0.50116   0.67397   0.49725   1.000
    C248    C    0.67076   0.43662   0.57886   1.000
    C249    C    0.80975   0.43783   0.59640   1.000
    C250    C    0.82853   0.79283   0.94566   1.000
    C251    C    0.68912   0.78671   0.93002   1.000
    C252    C    0.80300   0.46889   0.44179   1.000
    C253    C    0.66726   0.43461   0.42626   1.000
    C254    C    0.69025   0.78692   0.07728   1.000
    C255    C    0.82545   0.82427   0.09043   1.000
    C256    C    0.68159   0.94799   0.93260   1.000
    C257    C    0.82056   0.94915   0.91496   1.000
    C258    C    0.81765   0.28151   0.56568   1.000
    C259    C    0.67825   0.27534   0.58135   1.000
    C260    C    0.81340   0.98017   0.06199   1.000
    C261    C    0.67766   0.94590   0.07758   1.000
    C262    C    0.67980   0.27566   0.42653   1.000
    C263    C    0.81500   0.31298   0.41334   1.000
    C264    C    0.34753   0.07468   0.07497   1.000
    C265    C    0.20855   0.07352   0.09260   1.000
    C266    C    0.21146   0.74116   0.44189   1.000
    C267    C    0.35087   0.74734   0.42621   1.000
    C268    C    0.21571   0.04250   0.94550   1.000
    C269    C    0.35145   0.07677   0.92999   1.000
    C270    C    0.34931   0.74701   0.58104   1.000
    C271    C    0.21411   0.70969   0.59423   1.000
    C272    C    0.35835   0.58605   0.42870   1.000
    C273    C    0.21936   0.58485   0.41116   1.000
    C274    C    0.20059   0.22984   0.06191   1.000
    C275    C    0.34000   0.23596   0.07755   1.000
    C276    C    0.22611   0.55378   0.56577   1.000
    C277    C    0.36186   0.58806   0.58131   1.000
    C278    C    0.33886   0.23576   0.93029   1.000
    C279    C    0.20367   0.19840   0.91714   1.000
    O280    O    0.82705   0.93436   0.03100   1.000
    O281    O    0.83307   0.85641   0.04521   1.000
    O282    O    0.83063   0.91885   0.95748   1.000
    O283    O    0.83461   0.84069   0.97283   1.000
    O284    O    0.90414   0.89305   0.99996   1.000
    O285    O    0.42708   0.16110   0.00319   1.000
    O286    O    0.35574   0.11711   0.03748   1.000
    O287    O    0.35197   0.19775   0.03877   1.000
    O288    O    0.35770   0.11815   0.96500   1.000
    O289    O    0.35141   0.19764   0.96514   1.000
    O290    O    0.91688   0.14391   0.02269   1.000
    O291    O    0.91734   0.09909   0.97945   1.000
    O292    O    0.84953   0.12018   0.99944   1.000
    O293    O    0.03963   0.14595   0.02268   1.000
    O294    O    0.04019   0.10285   0.98086   1.000
    O295    O    0.12498   0.12963   0.00000   1.000
    O296    O    0.60204   0.86157   0.00016   1.000
    O297    O    0.51752   0.88891   0.00870   1.000
    O298    O    0.51750   0.83182   0.98455   1.000
    O299    O    0.67771   0.82503   0.03881   1.000
    O300    O    0.67142   0.90452   0.03896   1.000
    O301    O    0.67714   0.82493   0.96518   1.000
    O302    O    0.67338   0.90557   0.96647   1.000
    O303    O    0.17958   0.90249   0.00596   1.000
    O304    O    0.11177   0.92358   0.02593   1.000
    O305    O    0.11224   0.87876   0.98271   1.000
    O306    O    0.51161   0.19085   0.02243   1.000
    O307    O    0.51160   0.13376   0.99827   1.000
    O308    O    0.23759   0.92424   0.02723   1.000
    O309    O    0.25023   0.88152   0.99478   1.000
    O310    O    0.45359   0.91945   0.01428   1.000
    O311    O    0.39644   0.94576   0.02049   1.000
    O312    O    0.38843   0.89145   0.99919   1.000
    O313    O    0.51489   0.94003   0.02978   1.000
    O314    O    0.70824   0.16210   0.02350   1.000
    O315    O    0.64087   0.19039   0.03336   1.000
    O316    O    0.64068   0.13122   0.00836   1.000
    O317    O    0.76623   0.18472   0.04447   1.000
    O318    O    0.77889   0.14115   0.01279   1.000
    O319    O    0.57572   0.21948   0.04245   1.000
    O320    O    0.51463   0.24139   0.04825   1.000
    O321    O    0.97852   0.16660   0.04536   1.000
    O322    O    0.03645   0.18410   0.06346   1.000
    O323    O    0.92380   0.18384   0.06433   1.000
    O324    O    0.04445   0.94400   0.04723   1.000
    O325    O    0.98638   0.95872   0.06320   1.000
    O326    O    0.98380   0.91982   0.02287   1.000
    O327    O    0.63443   0.24336   0.05947   1.000
    O328    O    0.10503   0.96494   0.06692   1.000
    O329    O    0.23387   0.24341   0.07583   1.000
    O330    O    0.19451   0.18198   0.03095   1.000
    O331    O    0.77811   0.98280   0.07686   1.000
    O332    O    0.31451   0.06463   0.09150   1.000
    O333    O    0.72552   0.78611   0.09232   1.000
    O334    O    0.30357   0.24647   0.08366   1.000
    O335    O    0.71024   0.96566   0.08465   1.000
    O336    O    0.26294   0.28785   0.11597   1.000
    O337    O    0.79311   0.80478   0.09890   1.000
    O338    O    0.72819   0.00312   0.11990   1.000
    O339    O    0.24502   0.06405   0.10032   1.000
    O340    O    0.19849   0.10382   0.04630   1.000
    O341    O    0.76474   0.75870   0.13774   1.000
    O342    O    0.28621   0.02788   0.13812   1.000
    O343    O    0.15337   0.33612   0.14069   1.000
    O344    O    0.21930   0.33306   0.14891   1.000
    O345    O    0.29317   0.33295   0.16029   1.000
    O346    O    0.81241   0.05773   0.15960   1.000
    O347    O    0.74793   0.04165   0.15972   1.000
    O348    O    0.67408   0.02693   0.16301   1.000
    O349    O    0.40765   0.99820   0.16958   1.000
    O350    O    0.17548   0.37487   0.18043   1.000
    O351    O    0.61869   0.01652   0.16837   1.000
    O352    O    0.35769   0.33597   0.17296   1.000
    O353    O    0.73418   0.71200   0.18046   1.000
    O354    O    0.80804   0.72697   0.18376   1.000
    O355    O    0.34137   0.99956   0.17631   1.000
    O356    O    0.26736   0.99919   0.18724   1.000
    O357    O    0.66970   0.69611   0.18055   1.000
    O358    O    0.77891   0.08961   0.19820   1.000
    O359    O    0.63018   0.05928   0.20395   1.000
    O360    O    0.32418   0.37540   0.20409   1.000
    O361    O    0.87396   0.73815   0.18924   1.000
    O362    O    0.39644   0.97139   0.21005   1.000
    O363    O    0.70292   0.66572   0.22055   1.000
    O364    O    0.20290   0.99655   0.20037   1.000
    O365    O    0.85160   0.69645   0.22627   1.000
    O366    O    0.14074   0.41324   0.21045   1.000
    O367    O    0.20582   0.41691   0.22460   1.000
    O368    O    0.24749   0.96998   0.23292   1.000
    O369    O    0.81036   0.13821   0.23783   1.000
    O370    O    0.73553   0.12250   0.24029   1.000
    O371    O    0.87557   0.15532   0.23901   1.000
    O372    O    0.28065   0.41756   0.23689   1.000
    O373    O    0.35559   0.41854   0.24889   1.000
    O374    O    0.59536   0.09005   0.24133   1.000
    O375    O    0.66065   0.10689   0.24275   1.000
    O376    O    0.43161   0.93465   0.24151   1.000
    O377    O    0.36625   0.92992   0.25285   1.000
    O378    O    0.23689   0.45870   0.27075   1.000
    O379    O    0.67131   0.61816   0.26111   1.000
    O380    O    0.74618   0.63380   0.26353   1.000
    O381    O    0.84101   0.18510   0.27749   1.000
    O382    O    0.60602   0.60128   0.26251   1.000
    O383    O    0.88620   0.66670   0.26469   1.000
    O384    O    0.82100   0.64955   0.26595   1.000
    O385    O    0.69232   0.15445   0.28324   1.000
    O386    O    0.42097   0.42323   0.26220   1.000
    O387    O    0.29131   0.92889   0.26479   1.000
    O388    O    0.21648   0.92820   0.27908   1.000
    O389    O    0.38584   0.46002   0.29365   1.000
    O390    O    0.33489   0.88678   0.29768   1.000
    O391    O    0.64089   0.57054   0.29993   1.000
    O392    O    0.78961   0.60094   0.30560   1.000
    O393    O    0.15141   0.92449   0.29336   1.000
    O394    O    0.20298   0.49661   0.30324   1.000
    O395    O    0.26745   0.49921   0.31650   1.000
    O396    O    0.18621   0.88616   0.32338   1.000
    O397    O    0.86342   0.22681   0.31449   1.000
    O398    O    0.79750   0.21566   0.32002   1.000
    O399    O    0.65915   0.18486   0.32322   1.000
    O400    O    0.72364   0.20072   0.32331   1.000
    O401    O    0.34147   0.49955   0.32740   1.000
    O402    O    0.40775   0.49813   0.33409   1.000
    O403    O    0.36846   0.84738   0.33080   1.000
    O404    O    0.30394   0.84432   0.34348   1.000
    O405    O    0.61883   0.52756   0.33553   1.000
    O406    O    0.68485   0.53821   0.34082   1.000
    O407    O    0.75869   0.55298   0.34407   1.000
    O408    O    0.82316   0.56909   0.34417   1.000
    O409    O    0.29699   0.53920   0.36560   1.000
    O410    O    0.75425   0.24742   0.36605   1.000
    O411    O    0.23008   0.84439   0.35489   1.000
    O412    O    0.16415   0.84741   0.36317   1.000
    O413    O    0.72837   0.50313   0.38389   1.000
    O414    O    0.27376   0.79920   0.38782   1.000
    O415    O    0.25583   0.57538   0.40342   1.000
    O416    O    0.32533   0.57598   0.41220   1.000
    O417    O    0.78266   0.29350   0.40488   1.000
    O418    O    0.71506   0.27484   0.41148   1.000
    O419    O    0.20937   0.61515   0.45747   1.000
    O420    O    0.69983   0.45438   0.41917   1.000
    O421    O    0.76770   0.47152   0.42694   1.000
    O422    O    0.82238   0.34510   0.45857   1.000
    O423    O    0.31444   0.75783   0.42012   1.000
    O424    O    0.24473   0.75474   0.42796   1.000
    O425    O    0.09473   0.45373   0.43685   1.000
    O426    O    0.93477   0.69517   0.43948   1.000
    O427    O    0.04743   0.69544   0.44039   1.000
    O428    O    0.98120   0.44749   0.44052   1.000
    O429    O    0.36258   0.70906   0.46510   1.000
    O430    O    0.66105   0.39325   0.46488   1.000
    O431    O    0.66732   0.31377   0.46502   1.000
    O432    O    0.36632   0.62842   0.46635   1.000
    O433    O    0.64540   0.75462   0.44415   1.000
    O434    O    0.77720   0.69603   0.45928   1.000
    O435    O    0.81638   0.42305   0.47279   1.000
    O436    O    0.20542   0.69331   0.47284   1.000
    O437    O    0.52559   0.75266   0.45531   1.000
    O438    O    0.03927   0.43277   0.45650   1.000
    O439    O    0.10146   0.41236   0.47784   1.000
    O440    O    0.58669   0.73075   0.46115   1.000
    O441    O    0.65183   0.70168   0.47029   1.000
    O442    O    0.97861   0.40858   0.48084   1.000
    O443    O    0.22727   0.41302   0.47655   1.000
    O444    O    0.98948   0.67793   0.45846   1.000
    O445    O    0.92753   0.65519   0.48273   1.000
    O446    O    0.05028   0.65725   0.48113   1.000
    O447    O    0.50457   0.42877   0.47403   1.000
    O448    O    0.52257   0.70214   0.48117   1.000
    O449    O    0.38611   0.43450   0.48329   1.000
    O450    O    0.71921   0.67340   0.48020   1.000
    O451    O    0.78953   0.65242   0.49472   1.000
    O452    O    0.65133   0.64250   0.49913   1.000
    O453    O    0.44327   0.40820   0.48957   1.000
    O454    O    0.50688   0.37763   0.49839   1.000
    O455    O    0.37779   0.38017   0.50833   1.000
    O456    O    0.16926   0.39126   0.49782   1.000
    O457    O    0.23958   0.37025   0.51282   1.000
    O458    O    0.43772   0.67238   0.50063   1.000
    O459    O    0.52224   0.64504   0.50918   1.000
    O460    O    0.10159   0.36748   0.52482   1.000
    O461    O    0.59140   0.35029   0.50691   1.000
    O462    O    0.66280   0.39425   0.54118   1.000
    O463    O    0.66654   0.31361   0.54242   1.000
    O464    O    0.13561   0.64092   0.50378   1.000
    O465    O    0.05051   0.61409   0.52672   1.000
    O466    O    0.21274   0.59962   0.53478   1.000
    O467    O    0.20674   0.67757   0.54901   1.000
    O468    O    0.89351   0.38175   0.50379   1.000
    O469    O    0.82370   0.32936   0.53474   1.000
    O470    O    0.81975   0.40752   0.55010   1.000
    O471    O    0.97864   0.36543   0.52643   1.000
    O472    O    0.36180   0.70890   0.54252   1.000
    O473    O    0.36807   0.62943   0.54265   1.000
    O474    O    0.85986   0.63141   0.50971   1.000
    O475    O    0.92766   0.61032   0.52972   1.000
    O476    O    0.50655   0.32053   0.52638   1.000
    O477    O    0.80185   0.60966   0.53096   1.000
    O478    O    0.58585   0.61447   0.51799   1.000
    O479    O    0.64300   0.58817   0.52427   1.000
    O480    O    0.52455   0.59390   0.53349   1.000
    O481    O    0.30991   0.34927   0.52727   1.000
    O482    O    0.37729   0.32099   0.53718   1.000
    O483    O    0.25191   0.32664   0.54829   1.000
    O484    O    0.44243   0.29192   0.54640   1.000
    O485    O    0.50352   0.27001   0.55225   1.000
    O486    O    0.03943   0.34474   0.54909   1.000
    O487    O    0.98149   0.32723   0.56717   1.000
    O488    O    0.09434   0.32750   0.56807   1.000
    O489    O    0.98985   0.58990   0.55106   1.000
    O490    O    0.04791   0.57518   0.56704   1.000
    O491    O    0.38372   0.26805   0.56342   1.000
    O492    O    0.93438   0.56894   0.57071   1.000
    O493    O    0.78438   0.26793   0.57961   1.000
    O494    O    0.26142   0.55115   0.58059   1.000
    O495    O    0.70379   0.44669   0.59537   1.000
    O496    O    0.31406   0.74783   0.59609   1.000
    O497    O    0.32929   0.56829   0.58836   1.000
    O498    O    0.71468   0.26484   0.58744   1.000
    O499    O    0.75535   0.22347   0.61973   1.000
    O500    O    0.24646   0.72917   0.60269   1.000
    O501    O    0.30074   0.51954   0.62361   1.000
    O502    O    0.77329   0.44729   0.60414   1.000
    O503    O    0.27487   0.77525   0.64152   1.000
    O504    O    0.73213   0.48347   0.64197   1.000
    O505    O    0.86496   0.17525   0.64439   1.000
    O506    O    0.79904   0.17828   0.65265   1.000
    O507    O    0.72518   0.17835   0.66407   1.000
    O508    O    0.20596   0.45358   0.66338   1.000
    O509    O    0.27043   0.46969   0.66347   1.000
    O510    O    0.34427   0.48446   0.66672   1.000
    O511    O    0.62137   0.52454   0.67343   1.000
    O512    O    0.84291   0.13651   0.68418   1.000
    O513    O    0.41028   0.49511   0.67202   1.000
    O514    O    0.66066   0.17529   0.67677   1.000
    O515    O    0.30547   0.82195   0.68425   1.000
    O516    O    0.23161   0.80701   0.68755   1.000
    O517    O    0.36997   0.83782   0.68432   1.000
    O518    O    0.68765   0.52313   0.68016   1.000
    O519    O    0.76166   0.52346   0.69103   1.000
    O520    O    0.23950   0.42173   0.70196   1.000
    O521    O    0.38822   0.45213   0.70764   1.000
    O522    O    0.69422   0.13589   0.70789   1.000
    O523    O    0.16570   0.79586   0.69308   1.000
    O524    O    0.64327   0.56266   0.71391   1.000
    O525    O    0.33680   0.86823   0.72432   1.000
    O526    O    0.82613   0.52606   0.70414   1.000
    O527    O    0.18811   0.83757   0.73009   1.000
    O528    O    0.87770   0.09818   0.71420   1.000
    O529    O    0.81263   0.09447   0.72849   1.000
    O530    O    0.79223   0.56397   0.73669   1.000
    O531    O    0.20811   0.37312   0.74161   1.000
    O532    O    0.28293   0.38887   0.74404   1.000
    O533    O    0.14292   0.35597   0.74286   1.000
    O534    O    0.73781   0.09378   0.74078   1.000
    O535    O    0.66287   0.09275   0.75272   1.000
    O536    O    0.42309   0.42139   0.74502   1.000
    O537    O    0.35781   0.40451   0.74646   1.000
    O538    O    0.60815   0.59945   0.74536   1.000
    O539    O    0.67352   0.60414   0.75827   1.000
    O540    O    0.78163   0.05269   0.77464   1.000
    O541    O    0.36847   0.91578   0.76481   1.000
    O542    O    0.29358   0.90018   0.76727   1.000
    O543    O    0.17752   0.32622   0.78126   1.000
    O544    O    0.43376   0.93263   0.76620   1.000
    O545    O    0.15355   0.86735   0.76852   1.000
    O546    O    0.21876   0.88446   0.76974   1.000
    O547    O    0.32620   0.35695   0.78698   1.000
    O548    O    0.59751   0.08803   0.76605   1.000
    O549    O    0.74847   0.60512   0.77019   1.000
    O550    O    0.82330   0.60576   0.78284   1.000
    O551    O    0.63268   0.05128   0.79751   1.000
    O552    O    0.70494   0.64727   0.80307   1.000
    O553    O    0.39894   0.96340   0.80361   1.000
    O554    O    0.25021   0.93306   0.80937   1.000
    O555    O    0.88838   0.60944   0.79709   1.000
    O556    O    0.82622   0.01274   0.80715   1.000
    O557    O    0.76176   0.01274   0.82033   1.000
    O558    O    0.85364   0.64780   0.82711   1.000
    O559    O    0.15516   0.28452   0.81829   1.000
    O560    O    0.22108   0.29570   0.82378   1.000
    O561    O    0.35942   0.32656   0.82696   1.000
    O562    O    0.29493   0.31067   0.82707   1.000
    O563    O    0.68775   0.01237   0.83126   1.000
    O564    O    0.62147   0.01237   0.83798   1.000
    O565    O    0.67143   0.68670   0.83460   1.000
    O566    O    0.73595   0.68972   0.84727   1.000
    O567    O    0.41042   0.99507   0.83919   1.000
    O568    O    0.35503   0.99481   0.84455   1.000
    O569    O    0.28119   0.98009   0.84785   1.000
    O570    O    0.21671   0.96494   0.84797   1.000
    O571    O    0.74290   0.98405   0.86945   1.000
    O572    O    0.26438   0.26397   0.86983   1.000
    O573    O    0.80982   0.68961   0.85865   1.000
    O574    O    0.87574   0.68655   0.86688   1.000
    O575    O    0.30092   0.01862   0.88766   1.000
    O576    O    0.76618   0.73482   0.89161   1.000
    O577    O    0.78409   0.95863   0.90725   1.000
    O578    O    0.71461   0.95805   0.91607   1.000
    O579    O    0.23600   0.21789   0.90867   1.000
    O580    O    0.30360   0.23657   0.91524   1.000
    O581    O    0.31888   0.05701   0.92291   1.000
    O582    O    0.25101   0.03987   0.93067   1.000
    O583    O    0.19605   0.16626   0.95857   1.000
    O584    O    0.72555   0.77620   0.92392   1.000
    O585    O    0.79525   0.77926   0.93174   1.000
    O586    O    0.92408   0.05773   0.94060   1.000
    O587    O    0.10532   0.83882   0.94320   1.000
    O588    O    0.98698   0.83857   0.94410   1.000
    O589    O    0.03761   0.06395   0.94437   1.000
    O590    O    0.39469   0.77932   0.94809   1.000
    O591    O    0.26289   0.83795   0.96308   1.000
    O592    O    0.20207   0.08831   0.97275   1.000
    O593    O    0.51449   0.78128   0.95931   1.000
    O594    O    0.97954   0.07867   0.96031   1.000
    O595    O    0.45340   0.80320   0.96512   1.000
    O596    O    0.38825   0.83229   0.97419   1.000
    O597    O    0.79153   0.09843   0.98034   1.000
    O598    O    0.04491   0.85607   0.96220   1.000
    O599    O    0.98380   0.87672   0.98106   1.000
    O600    O    0.51423   0.08264   0.97778   1.000
    O601    O    0.63268   0.07691   0.98707   1.000
    O602    O    0.32087   0.86058   0.98404   1.000
    O603    O    0.57552   0.10322   0.99329   1.000
    O604    O    0.74229   0.36455   0.50365   1.000
    O605    O    0.75293   0.87585   0.00016   1.000
    O606    O    0.27619   0.14683   0.00000   1.000
    O607    O    0.28682   0.65813   0.50389   1.000
loop_
    _geom_bond_atom_site_label_1
    _geom_bond_atom_site_label_2
    _geom_bond_distance
    _geom_bond_site_symmetry_2
    _ccdc_geom_bond_type
    C3     O280      1.04541      .   S
    C260   O280      1.04541      .   S
    C3     O281      1.03456      .   S
    C255   O281      1.03456      .   S
    C3     O282      0.98740  1_554   S
    C257   O282      0.98740      .   S
    C3     O283      1.00685  1_554   S
    C250   O283      1.00685      .   S
    C3     O284      1.02479  1_554   S
    C242   O284      1.02479      .   S
    C4     O285      1.02090      .   S
    C245   O285      1.02090      .   S
    C4     O286      1.04653      .   S
    C264   O286      1.04653      .   S
    C4     O287      1.02961      .   S
    C275   O287      1.02961      .   S
    C4     O288      0.99896  1_554   S
    C269   O288      0.99896      .   S
    C4     O289      0.97960  1_554   S
    C278   O289      0.97960      .   S
    C194   O290      0.68241      .   S
    C193   O290      0.68241      .   S
    C194   O291      0.68024  1_554   S
    C202   O291      0.68024      .   S
    C194   O292      0.72551  1_554   S
    C195   O292      0.72551      .   S
    C244   O293      0.67918      .   S
    C192   O293      0.67918      .   S
    C244   O294      0.63116  1_554   S
    C203   O294      0.63116      .   S
    C244   O295      1.02479      .   S
    C5     O295      1.02479      .   S
    C243   O296      1.01914      .   S
    C2     O296      1.01914      .   S
    C243   O297      0.66071      .   S
    C164   O297      0.66071      .   S
    C243   O298      0.66960  1_554   S
    C163   O298      0.66960      .   S
    C2     O299      1.02641      .   S
    C254   O299      1.02641      .   S
    C2     O300      1.04508      .   S
    C261   O300      1.04508      .   S
    C2     O301      0.98257  1_554   S
    C251   O301      0.98257      .   S
    C2     O302      1.00194  1_554   S
    C256   O302      1.00194      .   S
    C158   O303      0.72726      .   S
    C159   O303      0.72726      .   S
    C158   O304      0.70406      .   S
    C166   O304      0.70406      .   S
    C158   O305      0.65768  1_554   S
    C157   O305      0.65768      .   S
    C245   O306      0.67448      .   S
    C199   O306      0.67448      .   S
    C245   O307      0.65805  1_554   S
    C200   O307      0.65805      .   S
    C159   O308      0.54502      .   S
    C44    O308      0.54502      .   S
    C159   O309      0.64628  1_554   S
    C160   O309      0.64628      .   S
    C165   O310      0.69179      .   S
    C164   O310      0.69179      .   S
    C165   O311      0.54397      .   S
    C49    O311      0.54397      .   S
    C165   O312      0.67394  1_554   S
    C161   O312      0.67394      .   S
    C164   O313      0.54469      .   S
    C48    O313      0.54469      .   S
    C197   O314      0.72788      .   S
    C196   O314      0.72788      .   S
    C197   O315      0.70380      .   S
    C198   O315      0.70380      .   S
    C197   O316      0.67384      .   S
    C201   O316      0.67384  1_556   S
    C196   O317      0.54629      .   S
    C67    O317      0.54629      .   S
    C196   O318      0.64624      .   S
    C195   O318      0.64624  1_556   S
    C199   O319      0.69372      .   S
    C198   O319      0.69372      .   S
    C199   O320      0.54492      .   S
    C69    O320      0.54492      .   S
    C192   O321      0.63371  1_455   S
    C193   O321      0.63371      .   S
    C192   O322      0.54494      .   S
    C64    O322      0.54494      .   S
    C193   O323      0.54455      .   S
    C65    O323      0.54455      .   S
    C167   O324      0.71797      .   S
    C166   O324      0.71797      .   S
    C167   O325      0.50152  1_455   S
    C51    O325      0.50152      .   S
    C167   O326      0.63889  1_455   S
    C242   O326      0.63889  1_556   S
    C198   O327      0.54510      .   S
    C68    O327      0.54510      .   S
    C166   O328      0.54495      .   S
    C50    O328      0.54495      .   S
    C274   O329      0.63718      .   S
    C215   O329      0.63718      .   S
    C274   O330      1.04477      .   S
    C5     O330      1.04477      .   S
    C260   O331      0.63890      .   S
    C144   O331      0.63890      .   S
    C264   O332      0.63685      .   S
    C168   O332      0.63685      .   S
    C254   O333      0.63690      .   S
    C119   O333      0.63690      .   S
    C275   O334      0.63720      .   S
    C215   O334      0.63720      .   S
    C261   O335      0.63685      .   S
    C144   O335      0.63685      .   S
    C215   O336      0.75064      .   S
    C210   O336      0.75064      .   S
    C255   O337      0.63714      .   S
    C119   O337      0.63714      .   S
    C144   O338      0.66786  1_565   S
    C145   O338      0.66786      .   S
    C265   O339      0.63791      .   S
    C168   O339      0.63791      .   S
    C265   O340      1.04581      .   S
    C5     O340      1.04581      .   S
    C119   O341      0.75168      .   S
    C114   O341      0.75168      .   S
    C168   O342      0.75034      .   S
    C169   O342      0.75034      .   S
    C77    O343      0.54426      .   S
    C211   O343      0.54426      .   S
    C210   O344      0.71019      .   S
    C211   O344      0.71019      .   S
    C210   O345      0.69199      .   S
    C209   O345      0.69199      .   S
    C41    O346      0.54509      .   S
    C154   O346      0.54509      .   S
    C145   O347      0.69241      .   S
    C154   O347      0.69241      .   S
    C145   O348      0.71045      .   S
    C146   O348      0.71045      .   S
    C52    O349      0.37828      .   S
    C170   O349      0.37828      .   S
    C211   O350      0.68758      .   S
    C212   O350      0.68758      .   S
    C36    O351      0.42526      .   S
    C146   O351      0.42526      .   S
    C76    O352      0.54488      .   S
    C209   O352      0.54488      .   S
    C114   O353      0.69210      .   S
    C113   O353      0.69210      .   S
    C114   O354      0.71046      .   S
    C115   O354      0.71046      .   S
    C169   O355      0.83085  1_545   S
    C170   O355      0.83085      .   S
    C169   O356      0.52274  1_545   S
    C178   O356      0.52274      .   S
    C16    O357      0.54488      .   S
    C113   O357      0.54488      .   S
    C154   O358      0.70786      .   S
    C153   O358      0.70786      .   S
    C146   O359      0.68772      .   S
    C147   O359      0.68772      .   S
    C209   O360      0.70728      .   S
    C208   O360      0.70728      .   S
    C17    O361      0.54454      .   S
    C115   O361      0.54454      .   S
    C170   O362      0.68754      .   S
    C171   O362      0.68754      .   S
    C113   O363      0.70829      .   S
    C112   O363      0.70829      .   S
    C57    O364      0.66945      .   S
    C178   O364      0.66945      .   S
    C115   O365      0.68856      .   S
    C116   O365      0.68856      .   S
    C212   O366      0.54589      .   S
    C78    O366      0.54589      .   S
    C212   O367      0.70996      .   S
    C213   O367      0.70996      .   S
    C178   O368      0.70725      .   S
    C177   O368      0.70725      .   S
    C153   O369      0.71127      .   S
    C152   O369      0.71127      .   S
    C153   O370      0.71912      .   S
    C148   O370      0.71912      .   S
    C40    O371      0.54636      .   S
    C152   O371      0.54636      .   S
    C208   O372      0.71846      .   S
    C213   O372      0.71846      .   S
    C208   O373      0.71082      .   S
    C207   O373      0.71082      .   S
    C147   O374      0.54557      .   S
    C37    O374      0.54557      .   S
    C147   O375      0.71099      .   S
    C148   O375      0.71099      .   S
    C171   O376      0.54577      .   S
    C53    O376      0.54577      .   S
    C171   O377      0.69255      .   S
    C172   O377      0.69255      .   S
    C213   O378      0.70861      .   S
    C214   O378      0.70861      .   S
    C112   O379      0.71099      .   S
    C111   O379      0.71099      .   S
    C112   O380      0.71912      .   S
    C117   O380      0.71912      .   S
    C152   O381      0.68855      .   S
    C151   O381      0.68855      .   S
    C15    O382      0.54599      .   S
    C111   O382      0.54599      .   S
    C116   O383      0.54606      .   S
    C18    O383      0.54606      .   S
    C116   O384      0.71127      .   S
    C117   O384      0.71127      .   S
    C148   O385      0.70764      .   S
    C149   O385      0.70764      .   S
    C75    O386      0.54576      .   S
    C207   O386      0.54576      .   S
    C177   O387      0.71269      .   S
    C172   O387      0.71269      .   S
    C177   O388      0.71064      .   S
    C176   O388      0.71064      .   S
    C207   O389      0.68754      .   S
    C206   O389      0.68754      .   S
    C172   O390      0.73329      .   S
    C173   O390      0.73329      .   S
    C111   O391      0.68774      .   S
    C110   O391      0.68774      .   S
    C117   O392      0.70786      .   S
    C118   O392      0.70786      .   S
    C56    O393      0.54579      .   S
    C176   O393      0.54579      .   S
    C214   O394      0.54454      .   S
    C79    O394      0.54454      .   S
    C214   O395      0.69233      .   S
    C205   O395      0.69233      .   S
    C176   O396      0.68793      .   S
    C175   O396      0.68793      .   S
    C151   O397      0.54452      .   S
    C39    O397      0.54452      .   S
    C151   O398      0.71047      .   S
    C150   O398      0.71047      .   S
    C149   O399      0.54499      .   S
    C38    O399      0.54499      .   S
    C149   O400      0.69240      .   S
    C150   O400      0.69240      .   S
    C206   O401      0.71082      .   S
    C205   O401      0.71082      .   S
    C206   O402      0.54417      .   S
    C74    O402      0.54417      .   S
    C173   O403      0.54492      .   S
    C54    O403      0.54492      .   S
    C173   O404      0.69195      .   S
    C174   O404      0.69195      .   S
    C110   O405      0.54408      .   S
    C14    O405      0.54408      .   S
    C110   O406      0.71024      .   S
    C109   O406      0.71024      .   S
    C118   O407      0.69225      .   S
    C109   O407      0.69225      .   S
    C118   O408      0.54495      .   S
    C19    O408      0.54495      .   S
    C205   O409      0.75044      .   S
    C204   O409      0.75044      .   S
    C150   O410      0.75162      .   S
    C155   O410      0.75162      .   S
    C175   O411      0.71015      .   S
    C174   O411      0.71015      .   S
    C175   O412      0.54425      .   S
    C55    O412      0.54425      .   S
    C109   O413      0.75083      .   S
    C108   O413      0.75083      .   S
    C174   O414      0.75084      .   S
    C179   O414      0.75084      .   S
    C204   O415      0.63791      .   S
    C273   O415      0.63791      .   S
    C204   O416      0.63683      .   S
    C272   O416      0.63683      .   S
    C155   O417      0.63717      .   S
    C263   O417      0.63717      .   S
    C155   O418      0.63696      .   S
    C262   O418      0.63696      .   S
    C273   O419      1.04583      .   S
    C7     O419      1.04583      .   S
    C108   O420      0.63686      .   S
    C253   O420      0.63686      .   S
    C108   O421      0.63890      .   S
    C252   O421      0.63890      .   S
    C263   O422      1.03411      .   S
    C1     O422      1.03411      .   S
    C179   O423      0.63718      .   S
    C267   O423      0.63718      .   S
    C179   O424      0.63720      .   S
    C266   O424      0.63720      .   S
    C28    O425      0.54493      .   S
    C130   O425      0.54493      .   S
    C87    O426      0.54458      .   S
    C229   O426      0.54458      .   S
    C86    O427      0.54493      .   S
    C228   O427      0.54493      .   S
    C29    O428      0.54507      .   S
    C131   O428      0.54507      .   S
    C267   O429      1.03095      .   S
    C6     O429      1.03095      .   S
    C253   O430      1.04482      .   S
    C0     O430      1.04482      .   S
    C262   O431      1.02628      .   S
    C0     O431      1.02628      .   S
    C272   O432      1.04752      .   S
    C6     O432      1.04752      .   S
    C90    O433      0.54511      .   S
    C234   O433      0.54511      .   S
    C89    O434      0.54627      .   S
    C232   O434      0.54627      .   S
    C252   O435      1.04482      .   S
    C1     O435      1.04482      .   S
    C266   O436      1.04451      .   S
    C7     O436      1.04451      .   S
    C91    O437      0.54487      .   S
    C235   O437      0.54487      .   S
    C130   O438      0.63534      .   S
    C131   O438      0.63534  1_655   S
    C130   O439      0.70402      .   S
    C122   O439      0.70402      .   S
    C234   O440      0.69370      .   S
    C235   O440      0.69370      .   S
    C234   O441      0.70370      .   S
    C233   O441      0.70370      .   S
    C131   O442      0.67481      .   S
    C240   O442      0.67481      .   S
    C22    O443      0.54534      .   S
    C123   O443      0.54534      .   S
    C229   O444      0.63370      .   S
    C228   O444      0.63370  1_455   S
    C229   O445      0.70470      .   S
    C230   O445      0.70470      .   S
    C228   O446      0.67639      .   S
    C246   O446      0.67639      .   S
    C26    O447      0.54500      .   S
    C128   O447      0.54500      .   S
    C235   O448      0.67459      .   S
    C247   O448      0.67459      .   S
    C27    O449      0.54399      .   S
    C129   O449      0.54399      .   S
    C232   O450      0.72785      .   S
    C233   O450      0.72785      .   S
    C232   O451      0.67521      .   S
    C231   O451      0.67521      .   S
    C233   O452      0.70392      .   S
    C237   O452      0.70392      .   S
    C128   O453      0.69179      .   S
    C129   O453      0.69179      .   S
    C128   O454      0.67595      .   S
    C241   O454      0.67595      .   S
    C129   O455      0.70317      .   S
    C125   O455      0.70317      .   S
    C123   O456      0.72724      .   S
    C122   O456      0.72724      .   S
    C123   O457      0.67554      .   S
    C124   O457      0.67554      .   S
    C247   O458      1.02614      .   S
    C6     O458      1.02614      .   S
    C247   O459      0.67595      .   S
    C236   O459      0.67595      .   S
    C122   O460      0.70459      .   S
    C121   O460      0.70459      .   S
    C0     O461      1.02618      .   S
    C241   O461      1.02618      .   S
    C0     O462      1.04793      .   S
    C248   O462      1.04793      .   S
    C0     O463      1.03135      .   S
    C259   O463      1.03135      .   S
    C246   O464      1.02979      .   S
    C7     O464      1.02979      .   S
    C246   O465      0.67481      .   S
    C239   O465      0.67481      .   S
    C7     O466      1.04477      .   S
    C276   O466      1.04477      .   S
    C7     O467      1.03410      .   S
    C271   O467      1.03410      .   S
    C1     O468      1.02979      .   S
    C240   O468      1.02979      .   S
    C1     O469      1.04451      .   S
    C258   O469      1.04451      .   S
    C1     O470      1.04575      .   S
    C249   O470      1.04575      .   S
    C240   O471      0.67463      .   S
    C120   O471      0.67463  1_455   S
    C6     O472      1.02673      .   S
    C270   O472      1.02673      .   S
    C6     O473      1.04528      .   S
    C277   O473      1.04528      .   S
    C230   O474      0.72720      .   S
    C231   O474      0.72720      .   S
    C230   O475      0.70402      .   S
    C238   O475      0.70402      .   S
    C241   O476      0.67450      .   S
    C127   O476      0.67450      .   S
    C231   O477      0.54546      .   S
    C88    O477      0.54546      .   S
    C237   O478      0.69179      .   S
    C236   O478      0.69179      .   S
    C237   O479      0.54400      .   S
    C93    O479      0.54400      .   S
    C236   O480      0.54472      .   S
    C92    O480      0.54472      .   S
    C125   O481      0.72800      .   S
    C124   O481      0.72800      .   S
    C125   O482      0.70432      .   S
    C126   O482      0.70432      .   S
    C124   O483      0.54622      .   S
    C23    O483      0.54622      .   S
    C127   O484      0.69372      .   S
    C126   O484      0.69372      .   S
    C127   O485      0.54493      .   S
    C25    O485      0.54493      .   S
    C120   O486      0.63698      .   S
    C121   O486      0.63698      .   S
    C120   O487      0.54320  1_455   S
    C20    O487      0.54320      .   S
    C121   O488      0.54470      .   S
    C21    O488      0.54470      .   S
    C239   O489      0.63534  1_455   S
    C238   O489      0.63534      .   S
    C239   O490      0.54507      .   S
    C95    O490      0.54507      .   S
    C126   O491      0.54512      .   S
    C24    O491      0.54512      .   S
    C238   O492      0.54499      .   S
    C94    O492      0.54499      .   S
    C258   O493      0.63716      .   S
    C143   O493      0.63716      .   S
    C276   O494      0.63857      .   S
    C216   O494      0.63857      .   S
    C248   O495      0.63687      .   S
    C96    O495      0.63687      .   S
    C270   O496      0.63692      .   S
    C191   O496      0.63692      .   S
    C277   O497      0.63669      .   S
    C216   O497      0.63669      .   S
    C259   O498      0.63718      .   S
    C143   O498      0.63718      .   S
    C143   O499      0.75066      .   S
    C138   O499      0.75066      .   S
    C271   O500      0.63714      .   S
    C191   O500      0.63714      .   S
    C216   O501      0.75109      .   S
    C217   O501      0.75109      .   S
    C249   O502      0.63793      .   S
    C96    O502      0.63793      .   S
    C191   O503      0.75169      .   S
    C186   O503      0.75169      .   S
    C96    O504      0.75038      .   S
    C97    O504      0.75038      .   S
    C33    O505      0.54424      .   S
    C139   O505      0.54424      .   S
    C138   O506      0.71020      .   S
    C139   O506      0.71020      .   S
    C138   O507      0.69209      .   S
    C137   O507      0.69209      .   S
    C85    O508      0.54506      .   S
    C226   O508      0.54506      .   S
    C217   O509      0.69237      .   S
    C226   O509      0.69237      .   S
    C217   O510      0.71042      .   S
    C218   O510      0.71042      .   S
    C8     O511      0.54456      .   S
    C98    O511      0.54456      .   S
    C139   O512      0.68793      .   S
    C140   O512      0.68793      .   S
    C80    O513      0.54427      .   S
    C218   O513      0.54427      .   S
    C32    O514      0.54492      .   S
    C137   O514      0.54492      .   S
    C186   O515      0.69237      .   S
    C185   O515      0.69237      .   S
    C186   O516      0.71045      .   S
    C187   O516      0.71045      .   S
    C60    O517      0.54511      .   S
    C185   O517      0.54511      .   S
    C97    O518      0.71083      .   S
    C98    O518      0.71083      .   S
    C97    O519      0.69198      .   S
    C106   O519      0.69198      .   S
    C226   O520      0.70787      .   S
    C225   O520      0.70787      .   S
    C218   O521      0.68768      .   S
    C219   O521      0.68768      .   S
    C137   O522      0.70715      .   S
    C136   O522      0.70715      .   S
    C61    O523      0.54452      .   S
    C187   O523      0.54452      .   S
    C98    O524      0.68753      .   S
    C99    O524      0.68753      .   S
    C185   O525      0.70764      .   S
    C184   O525      0.70764      .   S
    C13    O526      0.54496      .   S
    C106   O526      0.54496      .   S
    C187   O527      0.68855      .   S
    C188   O527      0.68855      .   S
    C140   O528      0.54580      .   S
    C34    O528      0.54580      .   S
    C140   O529      0.71063      .   S
    C141   O529      0.71063      .   S
    C106   O530      0.70782      .   S
    C105   O530      0.70782      .   S
    C225   O531      0.71127      .   S
    C224   O531      0.71127      .   S
    C225   O532      0.71915      .   S
    C220   O532      0.71915      .   S
    C84    O533      0.54606      .   S
    C224   O533      0.54606      .   S
    C136   O534      0.71881      .   S
    C141   O534      0.71881      .   S
    C136   O535      0.71079      .   S
    C135   O535      0.71079      .   S
    C219   O536      0.54576      .   S
    C81    O536      0.54576      .   S
    C219   O537      0.71103      .   S
    C220   O537      0.71103      .   S
    C99    O538      0.54577      .   S
    C9     O538      0.54577      .   S
    C99    O539      0.70707      .   S
    C100   O539      0.70707      .   S
    C141   O540      0.70732      .   S
    C142   O540      0.70732      .   S
    C184   O541      0.71100      .   S
    C183   O541      0.71100      .   S
    C184   O542      0.71912      .   S
    C189   O542      0.71912      .   S
    C224   O543      0.68815      .   S
    C223   O543      0.68815      .   S
    C59    O544      0.54574      .   S
    C183   O544      0.54574      .   S
    C188   O545      0.54606      .   S
    C62    O545      0.54606      .   S
    C188   O546      0.71125      .   S
    C189   O546      0.71125      .   S
    C220   O547      0.70767      .   S
    C221   O547      0.70767      .   S
    C31    O548      0.54576      .   S
    C135   O548      0.54576      .   S
    C105   O549      0.71743      .   S
    C100   O549      0.71743      .   S
    C105   O550      0.71062      .   S
    C104   O550      0.71062      .   S
    C135   O551      0.68752      .   S
    C134   O551      0.68752      .   S
    C100   O552      0.71225      .   S
    C101   O552      0.71225      .   S
    C183   O553      0.68773      .   S
    C182   O553      0.68773      .   S
    C189   O554      0.70792      .   S
    C190   O554      0.70792      .   S
    C12    O555      0.54579      .   S
    C104   O555      0.54579      .   S
    C142   O556      0.71807      .   S
    C35    O556      0.71807      .   S
    C142   O557      0.56421      .   S
    C133   O557      0.56421      .   S
    C104   O558      0.68789      .   S
    C103   O558      0.68789      .   S
    C223   O559      0.54473      .   S
    C83    O559      0.54473      .   S
    C223   O560      0.71070      .   S
    C222   O560      0.71070      .   S
    C221   O561      0.54512      .   S
    C82    O561      0.54512      .   S
    C221   O562      0.69235      .   S
    C222   O562      0.69235      .   S
    C134   O563      0.86835      .   S
    C133   O563      0.86835      .   S
    C134   O564      0.43372      .   S
    C30    O564      0.43372      .   S
    C101   O565      0.54493      .   S
    C10    O565      0.54493      .   S
    C101   O566      0.69213      .   S
    C102   O566      0.69213      .   S
    C182   O567      0.32522      .   S
    C58    O567      0.32522  1_545   S
    C182   O568      0.70730      .   S
    C181   O568      0.70730  1_545   S
    C190   O569      0.68394      .   S
    C181   O569      0.68394  1_545   S
    C190   O570      0.54508      .   S
    C63    O570      0.54508      .   S
    C133   O571      0.64153  1_545   S
    C132   O571      0.64153      .   S
    C222   O572      0.75167      .   S
    C227   O572      0.75167      .   S
    C103   O573      0.71022      .   S
    C102   O573      0.71022      .   S
    C103   O574      0.54429      .   S
    C11    O574      0.54429      .   S
    C181   O575      0.67639      .   S
    C180   O575      0.67639      .   S
    C102   O576      0.75064      .   S
    C107   O576      0.75064      .   S
    C132   O577      0.63790      .   S
    C257   O577      0.63790      .   S
    C132   O578      0.63684      .   S
    C256   O578      0.63684      .   S
    C227   O579      0.63716      .   S
    C279   O579      0.63716      .   S
    C227   O580      0.63694      .   S
    C278   O580      0.63694      .   S
    C180   O581      0.63686      .   S
    C269   O581      0.63686      .   S
    C180   O582      0.63862      .   S
    C268   O582      0.63862      .   S
    C279   O583      0.97689      .   S
    C5     O583      0.97689  1_554   S
    C107   O584      0.63720      .   S
    C251   O584      0.63720      .   S
    C107   O585      0.63718      .   S
    C250   O585      0.63718      .   S
    C72    O586      0.54506      .   S
    C202   O586      0.54506      .   S
    C43    O587      0.54499      .   S
    C157   O587      0.54499      .   S
    C42    O588      0.50242      .   S
    C156   O588      0.50242  1_455   S
    C73    O589      0.54507      .   S
    C203   O589      0.54507      .   S
    C46    O590      0.54510      .   S
    C162   O590      0.54510      .   S
    C45    O591      0.54652      .   S
    C160   O591      0.54652      .   S
    C268   O592      1.00783      .   S
    C5     O592      1.00783  1_554   S
    C47    O593      0.54492      .   S
    C163   O593      0.54492      .   S
    C202   O594      0.63535      .   S
    C203   O594      0.63535  1_455   S
    C162   O595      0.69372      .   S
    C163   O595      0.69372      .   S
    C162   O596      0.70369      .   S
    C161   O596      0.70369      .   S
    C66    O597      0.54508      .   S
    C195   O597      0.54508      .   S
    C157   O598      0.72558      .   S
    C156   O598      0.72558      .   S
    C156   O599      0.58770  1_455   S
    C242   O599      0.58770      .   S
    C70    O600      0.54469      .   S
    C200   O600      0.54469      .   S
    C71    O601      0.54397      .   S
    C201   O601      0.54397      .   S
    C160   O602      0.72786      .   S
    C161   O602      0.72786      .   S
    C200   O603      0.69179      .   S
    C201   O603      0.69179      .   S
    C0     O604      1.42123      .   S
    C1     O604      1.42123      .   S
    C2     O605      1.42619      .   S
    C3     O605      1.42619      .   S
    C4     O606      1.42618      .   S
    C5     O606      1.42618      .   S
    C6     O607      1.42123      .   S
    C7     O607      1.42123      .   S
