# CIF file generated by openbabel 2.4.90, see http://openbabel.sf.net
data_I
_chemical_name_common ''
_cell_length_a 16.158
_cell_length_b 18.104
_cell_length_c 18.807
_cell_angle_alpha 90
_cell_angle_beta 90
_cell_angle_gamma 92.615
_space_group_name_H-M_alt 'P 1'
_space_group_name_Hall 'P 1'
loop_
    _symmetry_equiv_pos_as_xyz
    x,y,z
loop_
    _atom_site_label
    _atom_site_type_symbol
    _atom_site_fract_x
    _atom_site_fract_y
    _atom_site_fract_z
    _atom_site_occupancy
    Zr0     Zr   0.65484   0.35188   0.50350   1.000
    Zr1     Zr   0.82975   0.37721   0.50379   1.000
    Zr2     Zr   0.66517   0.86314   0.00033   1.000
    Zr3     Zr   0.84069   0.88855   0.00000   1.000
    Zr4     Zr   0.36395   0.15953   0.00000   1.000
    Zr5     Zr   0.18843   0.13412   0.00000   1.000
    Zr6     Zr   0.37428   0.67079   0.50400   1.000
    Zr7     Zr   0.19937   0.64546   0.50378   1.000
    O8      O    0.74229   0.36455   0.50365   1.000
    O9      O    0.75293   0.87585   0.00016   1.000
    O10     O    0.27619   0.14683   0.00000   1.000
    O11     O    0.28682   0.65813   0.50389   1.000
    N12     N    0.25068   0.88083   0.99671   1.000
    O13     O    0.07741   0.88694   0.99833   1.000
    O14     O    0.42636   0.87120   0.99844   1.000
    N15     N    0.74396   0.09910   0.74307   1.000
    O16     O    0.70867   0.00234   0.85477   1.000
    O17     O    0.78730   0.00898   0.85028   1.000
    O18     O    0.70525   0.20636   0.64275   1.000
    O19     O    0.78383   0.21423   0.63890   1.000
    N20     N    0.77754   0.14184   0.01029   1.000
    O21     O    0.95126   0.13573   0.00514   1.000
    O22     O    0.60231   0.15147   0.00674   1.000
    N23     N    0.74882   0.60756   0.76825   1.000
    O24     O    0.71298   0.71624   0.86671   1.000
    O25     O    0.78429   0.50754   0.65917   1.000
    O26     O    0.79172   0.72413   0.87054   1.000
    O27     O    0.70581   0.50090   0.65471   1.000
    N28     N    0.24092   0.36956   0.51081   1.000
    O29     O    0.41616   0.35992   0.50886   1.000
    O30     O    0.06722   0.37566   0.50730   1.000
    N31     N    0.28515   0.92027   0.26431   1.000
    O32     O    0.32386   0.81467   0.36470   1.000
    O33     O    0.32045   0.01869   0.15090   1.000
    O34     O    0.24182   0.01205   0.15530   1.000
    O35     O    0.24528   0.80679   0.36857   1.000
    N36     N    0.74638   0.63199   0.26179   1.000
    O37     O    0.70371   0.51262   0.36334   1.000
    O38     O    0.78972   0.74420   0.15350   1.000
    O39     O    0.71204   0.72851   0.15030   1.000
    O40     O    0.78138   0.52752   0.36729   1.000
    N41     N    0.28953   0.89779   0.76556   1.000
    O42     O    0.24813   0.78768   0.65728   1.000
    O43     O    0.32361   0.00797   0.86528   1.000
    O44     O    0.32566   0.80335   0.65404   1.000
    O45     O    0.24580   0.99305   0.86915   1.000
    N46     N    0.73959   0.12379   0.24200   1.000
    O47     O    0.70346   0.21878   0.35351   1.000
    O48     O    0.70550   0.01415   0.14048   1.000
    O49     O    0.78332   0.02908   0.13650   1.000
    O50     O    0.78098   0.23444   0.35028   1.000
    N51     N    0.28029   0.41511   0.23925   1.000
    O52     O    0.32331   0.52177   0.35280   1.000
    O53     O    0.24483   0.51513   0.34836   1.000
    O54     O    0.23740   0.29855   0.13510   1.000
    O55     O    0.31613   0.30643   0.13901   1.000
    N56     N    0.78818   0.65311   0.49673   1.000
    O57     O    0.61295   0.66275   0.49868   1.000
    O58     O    0.96189   0.64702   0.50025   1.000
    N59     N    0.28274   0.39068   0.74575   1.000
    O60     O    0.31707   0.29416   0.85545   1.000
    O61     O    0.23939   0.27847   0.85216   1.000
    O62     O    0.24774   0.49515   0.64026   1.000
    O63     O    0.32540   0.51005   0.64420   1.000
loop_
    _geom_bond_atom_site_label_1
    _geom_bond_atom_site_label_2
    _geom_bond_distance
    _geom_bond_site_symmetry_2
    _ccdc_geom_bond_type
    Zr0    O8        1.42123      .   S
    Zr1    O8        1.42123      .   S
    Zr2    O9        1.42619      .   S
    Zr3    O9        1.42619      .   S
    Zr4    O10       1.42618      .   S
    Zr5    O10       1.42618      .   S
    Zr6    O11       1.42123      .   S
    Zr7    O11       1.42123      .   S
    N12    O13       2.80707      .   S
    Zr3    O13       3.82653  1_654   S
    N12    O14       2.85207      .   S
    Zr2    O14       3.86822  1_554   S
    N15    O16       2.77779      .   S
    Zr2    O16       3.76526  1_564   S
    N15    O17       2.70587      .   S
    Zr3    O17       3.68759  1_564   S
    N15    O18       2.79859      .   S
    Zr0    O18       3.82865      .   S
    N15    O19       2.91115      .   S
    Zr1    O19       3.93875      .   S
    N20    O21       2.81584      .   S
    Zr5    O21       3.83490  1_455   S
    N20    O22       2.84541      .   S
    Zr4    O22       3.86287      .   S
    N23    O24       2.78209      .   S
    Zr2    O24       3.76459  1_554   S
    N23    O25       2.81248      .   S
    Zr1    O25       3.84760      .   S
    N23    O26       2.91571      .   S
    Zr3    O26       3.89880  1_554   S
    N23    O27       2.94075      .   S
    Zr0    O27       3.98023      .   S
    N28    O29       2.84501      .   S
    Zr0    O29       3.86726      .   S
    N28    O30       2.81471      .   S
    Zr1    O30       3.83897  1_655   S
    N31    O32       2.77866      .   S
    Zr6    O32       3.80851      .   S
    N31    O33       2.82071  1_565   S
    Zr4    O33       3.85819      .   S
    N31    O34       2.74942  1_565   S
    Zr5    O34       3.78595      .   S
    N31    O35       2.89141      .   S
    Zr7    O35       3.91789      .   S
    N36    O37       2.94222      .   S
    Zr0    O37       3.97881      .   S
    N36    O38       2.93859      .   S
    Zr3    O38       3.95550      .   S
    N36    O39       2.80115      .   S
    Zr2    O39       3.82597      .   S
    N36    O40       2.81621      .   S
    Zr1    O40       3.84705      .   S
    N41    O42       2.90620      .   S
    Zr7    O42       3.92423      .   S
    N41    O43       2.77475  1_565   S
    Zr4    O43       3.76966  1_554   S
    N41    O44       2.78465      .   S
    Zr6    O44       3.80923      .   S
    N41    O45       2.71673      .   S
    Zr5    O45       3.69507  1_544   S
    N46    O47       2.79069      .   S
    Zr0    O47       3.81495      .   S
    N46    O48       2.79081      .   S
    Zr2    O48       3.83195  1_565   S
    N46    O49       2.73621      .   S
    Zr3    O49       3.75986  1_565   S
    N46    O50       2.91298      .   S
    Zr1    O50       3.93075      .   S
    N51    O52       2.94099      .   S
    Zr6    O52       3.98004      .   S
    N51    O53       2.81296      .   S
    Zr7    O53       3.84817      .   S
    N51    O54       2.93885      .   S
    Zr5    O54       3.96592      .   S
    N51    O55       2.80439      .   S
    Zr4    O55       3.83304      .   S
    N56    O57       2.84487      .   S
    Zr6    O57       3.86710      .   S
    N56    O58       2.81486      .   S
    Zr7    O58       3.83911  1_455   S
    N59    O60       2.77594      .   S
    Zr4    O60       3.75149  1_554   S
    N59    O61       2.91421      .   S
    Zr5    O61       3.87842  1_554   S
    N59    O62       2.81607      .   S
    Zr7    O62       3.84686      .   S
    N59    O63       2.94228      .   S
    Zr6    O63       3.97931      .   S
