# CIF file generated by openbabel 2.4.90, see http://openbabel.sf.net
data_I
_chemical_name_common ''
_cell_length_a 22.222
_cell_length_b 16.168
_cell_length_c 15.922
_cell_angle_alpha 89.998
_cell_angle_beta 91.136
_cell_angle_gamma 89.999
_space_group_name_H-M_alt 'P 1'
_space_group_name_Hall 'P 1'
loop_
    _symmetry_equiv_pos_as_xyz
    x,y,z
loop_
    _atom_site_label
    _atom_site_type_symbol
    _atom_site_fract_x
    _atom_site_fract_y
    _atom_site_fract_z
    _atom_site_occupancy
    Mc0     Mc   0.90195   0.23045   0.49966   1.000
    Mc1     Mc   0.09806   0.23045   0.50030   1.000
    Mc2     Mc   0.09805   0.76955   0.50028   1.000
    Mc3     Mc   0.90195   0.76956   0.49966   1.000
    Mc4     Mc   0.40195   0.23045   0.49967   1.000
    Mc5     Mc   0.59806   0.23045   0.50030   1.000
    Mc6     Mc   0.59806   0.76955   0.50028   1.000
    Mc7     Mc   0.40195   0.76956   0.49963   1.000
