# CIF file generated by openbabel 2.4.90, see http://openbabel.sf.net
data_I
_chemical_name_common ''
_cell_length_a 22.222
_cell_length_b 16.168
_cell_length_c 15.922
_cell_angle_alpha 89.998
_cell_angle_beta 91.136
_cell_angle_gamma 89.999
_space_group_name_H-M_alt 'P 1'
_space_group_name_Hall 'P 1'
loop_
    _symmetry_equiv_pos_as_xyz
    x,y,z
loop_
    _atom_site_label
    _atom_site_type_symbol
    _atom_site_fract_x
    _atom_site_fract_y
    _atom_site_fract_z
    _atom_site_occupancy
    H0      H    0.06935   0.83681   0.36492   1.000
    H1      H    0.56936   0.83681   0.36492   1.000
    H2      H    0.12739   0.70234   0.63514   1.000
    H3      H    0.62740   0.70234   0.63514   1.000
    H4      H    0.12819   0.70493   0.36611   1.000
    H5      H    0.62819   0.70493   0.36611   1.000
    H6      H    0.06839   0.83405   0.63504   1.000
    H7      H    0.56839   0.83405   0.63504   1.000
    H8      H    0.43065   0.83681   0.63504   1.000
    H9      H    0.93065   0.83681   0.63504   1.000
    H10     H    0.37261   0.70235   0.36482   1.000
    H11     H    0.87261   0.70235   0.36482   1.000
    H12     H    0.37181   0.70493   0.63385   1.000
    H13     H    0.87182   0.70493   0.63385   1.000
    H14     H    0.43162   0.83406   0.36492   1.000
    H15     H    0.93162   0.83406   0.36492   1.000
    H16     H    0.43065   0.16319   0.63504   1.000
    H17     H    0.93065   0.16319   0.63504   1.000
    H18     H    0.37261   0.29767   0.36482   1.000
    H19     H    0.87261   0.29767   0.36482   1.000
    H20     H    0.37182   0.29507   0.63385   1.000
    H21     H    0.87182   0.29507   0.63380   1.000
    H22     H    0.43162   0.16596   0.36492   1.000
    H23     H    0.93162   0.16596   0.36492   1.000
    H24     H    0.06936   0.16320   0.36492   1.000
    H25     H    0.56936   0.16320   0.36492   1.000
    H26     H    0.12739   0.29766   0.63514   1.000
    H27     H    0.62740   0.29765   0.63514   1.000
    H28     H    0.12819   0.29508   0.36611   1.000
    H29     H    0.62820   0.29507   0.36611   1.000
    H30     H    0.06839   0.16595   0.63504   1.000
    H31     H    0.56839   0.16595   0.63504   1.000
    C32     C    0.13110   0.69561   0.50060   1.000
    C33     C    0.63110   0.69561   0.50060   1.000
    C34     C    0.08166   0.80693   0.42422   1.000
    C35     C    0.58166   0.80693   0.42422   1.000
    C36     C    0.11387   0.73202   0.57630   1.000
    C37     C    0.61388   0.73202   0.57630   1.000
    C38     C    0.11433   0.73348   0.42458   1.000
    C39     C    0.61433   0.73348   0.42458   1.000
    C40     C    0.06515   0.84397   0.49994   1.000
    C41     C    0.56516   0.84397   0.49994   1.000
    C42     C    0.08112   0.80540   0.57599   1.000
    C43     C    0.58113   0.80540   0.57599   1.000
    C44     C    0.36890   0.69562   0.49900   1.000
    C45     C    0.86891   0.69562   0.49929   1.000
    C46     C    0.41835   0.80693   0.57574   1.000
    C47     C    0.91835   0.80693   0.57574   1.000
    C48     C    0.38613   0.73203   0.42360   1.000
    C49     C    0.88614   0.73203   0.42361   1.000
    C50     C    0.38567   0.73348   0.57538   1.000
    C51     C    0.88568   0.73348   0.57538   1.000
    C52     C    0.43485   0.84397   0.50002   1.000
    C53     C    0.93485   0.84397   0.50002   1.000
    C54     C    0.41888   0.80541   0.42397   1.000
    C55     C    0.91888   0.80541   0.42397   1.000
    C56     C    0.36891   0.30439   0.49930   1.000
    C57     C    0.86891   0.30439   0.49930   1.000
    C58     C    0.41835   0.19307   0.57574   1.000
    C59     C    0.91835   0.19307   0.57574   1.000
    C60     C    0.38613   0.26799   0.42362   1.000
    C61     C    0.88613   0.26799   0.42362   1.000
    C62     C    0.38568   0.26653   0.57538   1.000
    C63     C    0.88568   0.26653   0.57538   1.000
    C64     C    0.43485   0.15604   0.50002   1.000
    C65     C    0.93486   0.15604   0.50002   1.000
    C66     C    0.41888   0.19461   0.42397   1.000
    C67     C    0.91888   0.19461   0.42397   1.000
    C68     C    0.13110   0.30439   0.50067   1.000
    C69     C    0.63110   0.30439   0.50067   1.000
    C70     C    0.08166   0.19308   0.42422   1.000
    C71     C    0.58166   0.19307   0.42422   1.000
    C72     C    0.11387   0.26798   0.57635   1.000
    C73     C    0.61388   0.26798   0.57635   1.000
    C74     C    0.11433   0.26653   0.42458   1.000
    C75     C    0.61434   0.26653   0.42458   1.000
    C76     C    0.06515   0.15603   0.49994   1.000
    C77     C    0.56516   0.15603   0.49994   1.000
    C78     C    0.08113   0.19460   0.57599   1.000
    C79     C    0.58113   0.19460   0.57599   1.000
loop_
    _geom_bond_atom_site_label_1
    _geom_bond_atom_site_label_2
    _geom_bond_distance
    _geom_bond_site_symmetry_2
    _ccdc_geom_bond_type
    H19    C61       1.08899      .   S
    H18    C60       1.08898      .   S
    H11    C49       1.08885      .   S
    H10    C48       1.08871      .   S
    H0     C34       1.09057      .   S
    H1     C35       1.09057      .   S
    H22    C66       1.09055      .   S
    H23    C67       1.09055      .   S
    H24    C70       1.09056      .   S
    H25    C71       1.09057      .   S
    H15    C55       1.09055      .   S
    H14    C54       1.09054      .   S
    H29    C75       1.08898      .   S
    H4     C38       1.08900      .   S
    H5     C39       1.08899      .   S
    H28    C74       1.08898      .   S
    C48    C54       1.39172      .   S
    C48    C44       1.39732      .   S
    C49    C55       1.39170      .   S
    C49    C45       1.40118      .   S
    C60    C66       1.39172      .   S
    C60    C56       1.40116      .   S
    C61    C67       1.39171      .   S
    C61    C57       1.40117      .   S
    C66    C64       1.40143      .   S
    C55    C53       1.40144      .   S
    C54    C52       1.40144      .   S
    C67    C65       1.40143      .   S
    C34    C38       1.39194      .   S
    C34    C40       1.40147      .   S
    C71    C75       1.39194      .   S
    C71    C77       1.40149      .   S
    C70    C74       1.39196      .   S
    C70    C76       1.40148      .   S
    C35    C39       1.39194      .   S
    C35    C41       1.40148      .   S
    C75    C69       1.40122      .   S
    C74    C68       1.40122      .   S
    C38    C32       1.40026      .   S
    C39    C33       1.40025      .   S
    C44    C50       1.40520      .   S
    C45    C51       1.40122      .   S
    C57    C63       1.40108      .   S
    C56    C62       1.40107      .   S
    C77    C79       1.40144      .   S
    C76    C78       1.40144      .   S
    C41    C43       1.40143      .   S
    C40    C42       1.40143      .   S
    C52    C46       1.40148      .   S
    C53    C47       1.40148      .   S
    C64    C58       1.40147      .   S
    C65    C59       1.40147      .   S
    C32    C36       1.40145      .   S
    C33    C37       1.40145      .   S
    C68    C72       1.40118      .   S
    C69    C73       1.40118      .   S
    C62    C58       1.39195      .   S
    C62    H20       1.08899      .   S
    C63    C59       1.39194      .   S
    C63    H21       1.08831      .   S
    C51    C47       1.39194      .   S
    C51    H13       1.08898      .   S
    C50    C46       1.39193      .   S
    C50    H12       1.08899      .   S
    C58    H16       1.09056      .   S
    C59    H17       1.09057      .   S
    C47    H9        1.09056      .   S
    C46    H8        1.09057      .   S
    C43    C37       1.39172      .   S
    C43    H7        1.09055      .   S
    C42    C36       1.39172      .   S
    C42    H6        1.09055      .   S
    C79    C73       1.39170      .   S
    C79    H31       1.09055      .   S
    C78    C72       1.39171      .   S
    C78    H30       1.09054      .   S
    C37    H3        1.08953      .   S
    C36    H2        1.08953      .   S
    C73    H27       1.08885      .   S
    C72    H26       1.08885      .   S
