# CIF file generated by openbabel 2.4.90, see http://openbabel.sf.net
data_I
_chemical_name_common ''
_cell_length_a 22.222
_cell_length_b 16.168
_cell_length_c 15.922
_cell_angle_alpha 89.998
_cell_angle_beta 91.136
_cell_angle_gamma 89.999
_space_group_name_H-M_alt 'P 1'
_space_group_name_Hall 'P 1'
loop_
    _symmetry_equiv_pos_as_xyz
    x,y,z
loop_
    _atom_site_label
    _atom_site_type_symbol
    _atom_site_fract_x
    _atom_site_fract_y
    _atom_site_fract_z
    _atom_site_occupancy
    H0      H    0.34888   0.49998   0.71426   1.000
    H1      H    0.84888   0.50000   0.71426   1.000
    H2      H    0.16325   0.50000   0.72737   1.000
    H3      H    0.66326   0.50000   0.72737   1.000
    H4      H    0.16687   0.49999   0.88630   1.000
    H5      H    0.66687   0.50000   0.88637   1.000
    H6      H    0.36051   0.49997   0.87325   1.000
    H7      H    0.86052   0.50000   0.87325   1.000
    H8      H    0.15113   0.50003   0.28570   1.000
    H9      H    0.65113   0.50001   0.28570   1.000
    H10     H    0.33675   0.50001   0.27200   1.000
    H11     H    0.83676   0.50001   0.27259   1.000
    H12     H    0.33313   0.50001   0.11359   1.000
    H13     H    0.83314   0.50001   0.11359   1.000
    H14     H    0.13949   0.50004   0.12671   1.000
    H15     H    0.63949   0.50001   0.12671   1.000
    C16     C    0.03176   0.92388   0.49978   1.000
    C17     C    0.53176   0.92388   0.49978   1.000
    C18     C    0.46825   0.92389   0.50018   1.000
    C19     C    0.96825   0.92389   0.50018   1.000
    C20     C    0.46825   0.07612   0.50018   1.000
    C21     C    0.96825   0.07612   0.50018   1.000
    C22     C    0.03176   0.07612   0.49978   1.000
    C23     C    0.53176   0.07612   0.49978   1.000
    C24     C    0.31020   0.49998   0.75530   1.000
    C25     C    0.81020   0.50000   0.75530   1.000
    C26     C    0.20568   0.50000   0.76290   1.000
    C27     C    0.70569   0.50000   0.76293   1.000
    C28     C    0.20780   0.49999   0.85001   1.000
    C29     C    0.70780   0.50000   0.85000   1.000
    C30     C    0.26442   0.49999   0.89077   1.000
    C31     C    0.76442   0.50000   0.89070   1.000
    C32     C    0.31634   0.49998   0.84240   1.000
    C33     C    0.81634   0.50000   0.84240   1.000
    C34     C    0.18981   0.50002   0.24466   1.000
    C35     C    0.68981   0.50001   0.24466   1.000
    C36     C    0.29432   0.50001   0.23703   1.000
    C37     C    0.79432   0.50001   0.23703   1.000
    C38     C    0.29221   0.50001   0.14996   1.000
    C39     C    0.79221   0.50001   0.14990   1.000
    C40     C    0.23559   0.50002   0.10900   1.000
    C41     C    0.73559   0.50001   0.10920   1.000
    C42     C    0.18367   0.50003   0.15756   1.000
    C43     C    0.68367   0.50001   0.15756   1.000
    C44     C    0.06209   1.00000   0.49962   1.000
    C45     C    0.56209   1.00000   0.49962   1.000
    C46     C    0.43792   0.00000   0.50034   1.000
    C47     C    0.93792   0.00000   0.50034   1.000
    Br48    Br   0.14868   0.99999   0.49982   1.000
    Br49    Br   0.64868   0.99999   0.49982   1.000
    Br50    Br   0.35133   0.00001   0.50014   1.000
    Br51    Br   0.85133   0.00001   0.50014   1.000
    N52     N    0.25588   0.49999   0.71640   1.000
    N53     N    0.75589   0.50000   0.71640   1.000
    N54     N    0.27420   0.49998   0.97915   1.000
    N55     N    0.77420   0.50000   0.97915   1.000
    N56     N    0.24412   0.50001   0.28351   1.000
    N57     N    0.74412   0.50001   0.28351   1.000
    N58     N    0.22581   0.50002   0.02081   1.000
    N59     N    0.72581   0.50001   0.02081   1.000
loop_
    _geom_bond_atom_site_label_1
    _geom_bond_atom_site_label_2
    _geom_bond_distance
    _geom_bond_site_symmetry_2
    _ccdc_geom_bond_type
    N59    C41       1.41976      .   S
    N59    N55       1.27444  1_554   S
    N58    C40       1.41660      .   S
    N58    N54       1.27444  1_554   S
    C40    C38       1.40562      .   S
    C40    C42       1.40161      .   S
    C41    C39       1.40380      .   S
    C41    C43       1.39980      .   S
    H12    C38       1.08783      .   S
    H13    C39       1.08731      .   S
    H14    C42       1.08897      .   S
    H15    C43       1.08897      .   S
    C39    C37       1.38715      .   S
    C38    C36       1.38619      .   S
    C42    C34       1.39081      .   S
    C43    C35       1.39081      .   S
    C37    H11       1.09019      .   S
    C37    N57       1.35087      .   S
    C36    H10       1.08550      .   S
    C36    N56       1.35089      .   S
    C34    N56       1.34525      .   S
    C34    H8        1.09002      .   S
    C35    N57       1.34527      .   S
    C35    H9        1.09004      .   S
    C44    C22       1.40324  1_565   S
    C44    C16       1.40308      .   S
    C44    Br48      1.92414      .   S
    C45    C23       1.40323  1_565   S
    C45    C17       1.40311      .   S
    C45    Br49      1.92414      .   S
    C23    C20       1.41155      .   S
    C22    C21       1.41135  1_455   S
    C17    C18       1.41155      .   S
    C16    C19       1.41137  1_455   S
    Br51   C47       1.92414      .   S
    Br50   C46       1.92414      .   S
    C19    C47       1.40313  1_565   S
    C18    C46       1.40314  1_565   S
    C20    C46       1.40324      .   S
    C21    C47       1.40324      .   S
    H1     C25       1.09002      .   S
    H0     C24       1.09004      .   S
    N52    C24       1.34562      .   S
    N52    C26       1.35103      .   S
    N53    C25       1.34560      .   S
    N53    C27       1.35134      .   S
    H3     C27       1.09019      .   S
    H2     C26       1.08995      .   S
    C24    C32       1.39081      .   S
    C25    C33       1.39081      .   S
    C26    C28       1.38683      .   S
    C27    C29       1.38619      .   S
    C32    H6        1.08897      .   S
    C32    C30       1.39987      .   S
    C33    H7        1.08897      .   S
    C33    C31       1.39926      .   S
    C29    H5        1.08783      .   S
    C29    C31       1.40378      .   S
    C28    H4        1.08713      .   S
    C28    C30       1.40422      .   S
    C31    N55       1.42070      .   S
    C30    N54       1.41960      .   S
