# CIF file generated by openbabel 2.4.90, see http://openbabel.sf.net
data_I
_chemical_name_common ''
_cell_length_a 22.222
_cell_length_b 16.168
_cell_length_c 15.922
_cell_angle_alpha 89.998
_cell_angle_beta 91.136
_cell_angle_gamma 89.999
_space_group_name_H-M_alt 'P 1'
_space_group_name_Hall 'P 1'
loop_
    _symmetry_equiv_pos_as_xyz
    x,y,z
loop_
    _atom_site_label
    _atom_site_type_symbol
    _atom_site_fract_x
    _atom_site_fract_y
    _atom_site_fract_z
    _atom_site_occupancy
    Zn0     Zn   0.75022   0.50000   0.58640   1.000
    Zn1     Zn   0.24979   0.50001   0.41356   1.000
    Zn2     Zn   0.74979   0.50001   0.41356   1.000
    Zn3     Zn   0.25022   0.50000   0.58640   1.000
    C4      C    0.16957   0.61941   0.50134   1.000
    C5      C    0.66957   0.61941   0.50134   1.000
    C6      C    0.33044   0.61941   0.49862   1.000
    C7      C    0.83044   0.61941   0.49862   1.000
    C8      C    0.33044   0.38060   0.49862   1.000
    C9      C    0.83044   0.38060   0.49862   1.000
    C10     C    0.16957   0.38060   0.50134   1.000
    C11     C    0.66957   0.38059   0.50134   1.000
    O12     O    0.18496   0.59052   0.43041   1.000
    O13     O    0.68496   0.59052   0.43041   1.000
    O14     O    0.18521   0.59031   0.57295   1.000
    O15     O    0.68521   0.59031   0.57295   1.000
    O16     O    0.31505   0.59052   0.56955   1.000
    O17     O    0.81505   0.59052   0.56955   1.000
    O18     O    0.31480   0.59032   0.42701   1.000
    O19     O    0.81480   0.59032   0.42701   1.000
    O20     O    0.31505   0.40949   0.56955   1.000
    O21     O    0.81505   0.40949   0.56955   1.000
    O22     O    0.31480   0.40969   0.42701   1.000
    O23     O    0.81480   0.40969   0.42701   1.000
    O24     O    0.18496   0.40949   0.43041   1.000
    O25     O    0.68496   0.40949   0.43041   1.000
    O26     O    0.18521   0.40969   0.57295   1.000
    O27     O    0.68521   0.40969   0.57295   1.000
loop_
    _geom_bond_atom_site_label_1
    _geom_bond_atom_site_label_2
    _geom_bond_distance
    _geom_bond_site_symmetry_2
    _ccdc_geom_bond_type
    Zn2    O23       2.06216      .   S
    Zn2    O19       2.06223      .   S
    Zn2    O13       2.07466      .   S
    Zn2    O25       2.07473      .   S
    Zn1    O22       2.06216      .   S
    Zn1    O18       2.06223      .   S
    Zn1    O12       2.07467      .   S
    Zn1    O24       2.07474      .   S
    O23    C9        1.27526      .   S
    O22    C8        1.27527      .   S
    O19    C7        1.27528      .   S
    O18    C6        1.27528      .   S
    O12    C4        1.27513      .   S
    O13    C5        1.27513      .   S
    O24    C10       1.27511      .   S
    O25    C11       1.27512      .   S
    C9     O21       1.27513      .   S
    C7     O17       1.27512      .   S
    C6     O16       1.27511      .   S
    C8     O20       1.27512      .   S
    C4     O14       1.27527      .   S
    C5     O15       1.27526      .   S
    C11    O27       1.27528      .   S
    C10    O26       1.27528      .   S
    O16    Zn3       2.07472      .   S
    O17    Zn0       2.07473      .   S
    O20    Zn3       2.07465      .   S
    O21    Zn0       2.07466      .   S
    O14    Zn3       2.06218      .   S
    O15    Zn0       2.06217      .   S
    O26    Zn3       2.06226      .   S
    O27    Zn0       2.06223      .   S
    Zn3    Zn1       2.75179      .   S
    Zn0    Zn2       2.75179      .   S
