# CIF file generated by openbabel 2.4.90, see http://openbabel.sf.net
data_I
_chemical_name_common ''
_cell_length_a 22.222
_cell_length_b 16.168
_cell_length_c 15.922
_cell_angle_alpha 89.998
_cell_angle_beta 91.136
_cell_angle_gamma 89.999
_space_group_name_H-M_alt 'P 1'
_space_group_name_Hall 'P 1'
loop_
    _symmetry_equiv_pos_as_xyz
    x,y,z
loop_
    _atom_site_label
    _atom_site_type_symbol
    _atom_site_fract_x
    _atom_site_fract_y
    _atom_site_fract_z
    _atom_site_occupancy
    N0      N    0.00000   0.00000   0.49998   1.000
    N1      N    0.50000   0.00000   0.49998   1.000
    N2      N    0.25000   0.50000   0.99994   1.000
    N3      N    0.75001   0.50000   0.99997   1.000
    Zr4     Zr   0.25000   0.50000   0.49998   1.000
    O5      O    0.31291   0.60677   0.49960   1.000
    O6      O    0.18710   0.60677   0.50030   1.000
    O7      O    0.31291   0.39324   0.49965   1.000
    O8      O    0.24924   0.50001   0.33711   1.000
    O9      O    0.18710   0.39324   0.50032   1.000
    O10     O    0.25076   0.50000   0.66282   1.000
    Zr11    Zr   0.75001   0.50000   0.49998   1.000
    O12     O    0.81291   0.39324   0.49965   1.000
    O13     O    0.75077   0.50000   0.66283   1.000
    O14     O    0.74924   0.50000   0.33712   1.000
    O15     O    0.68710   0.60677   0.50030   1.000
    O16     O    0.68710   0.39324   0.50032   1.000
    O17     O    0.81291   0.60677   0.49964   1.000
loop_
    _geom_bond_atom_site_label_1
    _geom_bond_atom_site_label_2
    _geom_bond_distance
    _geom_bond_site_symmetry_2
    _ccdc_geom_bond_type
    Zr4    O5        2.22130      .   S
    N1     O5        7.59656  1_545   S
    Zr4    O6        2.22124      .   S
    N0     O6        7.59642  1_545   S
    Zr4    O7        2.22124      .   S
    N1     O7        7.59651      .   S
    Zr4    O8        2.59296      .   S
    N2     O8        5.36879  1_556   S
    Zr4    O9        2.22129      .   S
    N0     O9        7.59658      .   S
    Zr4    O10       2.59253      .   S
    N2     O10       5.36789      .   S
    Zr11   O12       2.22124      .   S
    N0     O12       7.59645  1_455   S
    Zr11   O13       2.59267      .   S
    N3     O13       5.36829      .   S
    Zr11   O14       2.59283      .   S
    N3     O14       5.36838  1_556   S
    Zr11   O15       2.22123      .   S
    N1     O15       7.59646  1_545   S
    Zr11   O16       2.22129      .   S
    N1     O16       7.59662      .   S
    Zr11   O17       2.22129      .   S
    N0     O17       7.59650  1_445   S
