# CIF file generated by openbabel 2.4.90, see http://openbabel.sf.net
data_I
_chemical_name_common ''
_cell_length_a 22.222
_cell_length_b 16.168
_cell_length_c 15.922
_cell_angle_alpha 89.998
_cell_angle_beta 91.136
_cell_angle_gamma 89.999
_space_group_name_H-M_alt 'P 1'
_space_group_name_Hall 'P 1'
loop_
    _symmetry_equiv_pos_as_xyz
    x,y,z
loop_
    _atom_site_label
    _atom_site_type_symbol
    _atom_site_fract_x
    _atom_site_fract_y
    _atom_site_fract_z
    _atom_site_occupancy
    Zr0     Zr   0.25022   0.50000   0.58640   1.000
    Zr1     Zr   0.75022   0.50000   0.58640   1.000
    Zr2     Zr   0.24979   0.50001   0.41356   1.000
    Zr3     Zr   0.74979   0.50001   0.41356   1.000
    Zr4     Zr   0.16957   0.61941   0.50134   1.000
    Zr5     Zr   0.66957   0.61941   0.50134   1.000
    Zr6     Zr   0.33044   0.61941   0.49862   1.000
    Zr7     Zr   0.83044   0.61941   0.49862   1.000
    Zr8     Zr   0.33044   0.38060   0.49862   1.000
    Zr9     Zr   0.83044   0.38060   0.49862   1.000
    Zr10    Zr   0.16957   0.38060   0.50134   1.000
    Zr11    Zr   0.66957   0.38059   0.50134   1.000
    Zr12    Zr   0.18496   0.59052   0.43041   1.000
    Zr13    Zr   0.68496   0.59052   0.43041   1.000
    Zr14    Zr   0.18521   0.59031   0.57295   1.000
    Zr15    Zr   0.68521   0.59031   0.57295   1.000
    Zr16    Zr   0.31505   0.59052   0.56955   1.000
    Zr17    Zr   0.81505   0.59052   0.56955   1.000
    Zr18    Zr   0.31480   0.59032   0.42701   1.000
    Zr19    Zr   0.81480   0.59032   0.42701   1.000
    Zr20    Zr   0.31505   0.40949   0.56955   1.000
    Zr21    Zr   0.81505   0.40949   0.56955   1.000
    Zr22    Zr   0.31480   0.40969   0.42701   1.000
    Zr23    Zr   0.81480   0.40969   0.42701   1.000
    Zr24    Zr   0.18496   0.40949   0.43041   1.000
    Zr25    Zr   0.68496   0.40949   0.43041   1.000
    Zr26    Zr   0.18521   0.40969   0.57295   1.000
    Zr27    Zr   0.68521   0.40969   0.57295   1.000
    O28     O    0.78230   0.45485   0.42028   1.000
    O29     O    0.78230   0.54516   0.42028   1.000
    O30     O    0.71738   0.54526   0.42198   1.000
    O31     O    0.71738   0.45475   0.42198   1.000
    O32     O    0.28229   0.45485   0.42028   1.000
    O33     O    0.28229   0.54516   0.42028   1.000
    O34     O    0.21737   0.54526   0.42198   1.000
    O35     O    0.21737   0.45475   0.42198   1.000
    O36     O    0.82262   0.39515   0.46281   1.000
    O37     O    0.32262   0.39515   0.46281   1.000
    O38     O    0.82262   0.60486   0.46281   1.000
    O39     O    0.32262   0.60486   0.46281   1.000
    O40     O    0.17726   0.60496   0.46587   1.000
    O41     O    0.67727   0.60496   0.46587   1.000
    O42     O    0.17726   0.39504   0.46587   1.000
    O43     O    0.67727   0.39504   0.46587   1.000
    O44     O    0.82274   0.39504   0.53408   1.000
    O45     O    0.82274   0.60496   0.53408   1.000
    O46     O    0.32274   0.60496   0.53408   1.000
    O47     O    0.32274   0.39504   0.53408   1.000
    O48     O    0.17739   0.60486   0.53714   1.000
    O49     O    0.67739   0.60486   0.53714   1.000
    O50     O    0.67739   0.39514   0.53714   1.000
    O51     O    0.17739   0.39514   0.53714   1.000
    O52     O    0.28263   0.54526   0.57798   1.000
    O53     O    0.78263   0.54526   0.57798   1.000
    O54     O    0.28263   0.45475   0.57798   1.000
    O55     O    0.78263   0.45475   0.57798   1.000
    O56     O    0.21771   0.54516   0.57967   1.000
    O57     O    0.71771   0.54516   0.57967   1.000
    O58     O    0.21771   0.45485   0.57967   1.000
    O59     O    0.71771   0.45485   0.57967   1.000
    O60     O    0.25000   0.50000   0.49998   1.000
    O61     O    0.75001   0.50000   0.49998   1.000
    N62     N    0.00000   0.00000   0.49998   1.000
    O63     O    0.87581   0.28647   0.49931   1.000
    O64     O    0.12419   0.28647   0.50065   1.000
    O65     O    0.12419   0.71353   0.50063   1.000
    O66     O    0.87581   0.71354   0.49931   1.000
    N67     N    0.50000   0.00000   0.49998   1.000
    O68     O    0.37581   0.28647   0.49931   1.000
    O69     O    0.62420   0.28647   0.50065   1.000
    O70     O    0.62420   0.71353   0.50063   1.000
    O71     O    0.37581   0.71354   0.49922   1.000
    N72     N    0.25000   0.50000   0.99994   1.000
    O73     O    0.24848   0.50001   0.17424   1.000
    O74     O    0.25153   0.50000   0.82567   1.000
    N75     N    0.75001   0.50000   0.99997   1.000
    O76     O    0.74848   0.50000   0.17425   1.000
    O77     O    0.75153   0.50000   0.82569   1.000
loop_
    _geom_bond_atom_site_label_1
    _geom_bond_atom_site_label_2
    _geom_bond_distance
    _geom_bond_site_symmetry_2
    _ccdc_geom_bond_type
    Zr3    O28       1.03108      .   S
    Zr23   O28       1.03108      .   S
    Zr3    O29       1.03111      .   S
    Zr19   O29       1.03111      .   S
    Zr3    O30       1.03733      .   S
    Zr13   O30       1.03733      .   S
    Zr3    O31       1.03736      .   S
    Zr25   O31       1.03736      .   S
    Zr2    O32       1.03108      .   S
    Zr22   O32       1.03108      .   S
    Zr2    O33       1.03111      .   S
    Zr18   O33       1.03111      .   S
    Zr2    O34       1.03734      .   S
    Zr12   O34       1.03734      .   S
    Zr2    O35       1.03737      .   S
    Zr24   O35       1.03737      .   S
    Zr23   O36       0.63763      .   S
    Zr9    O36       0.63763      .   S
    Zr22   O37       0.63763      .   S
    Zr8    O37       0.63763      .   S
    Zr19   O38       0.63764      .   S
    Zr7    O38       0.63764      .   S
    Zr18   O39       0.63764      .   S
    Zr6    O39       0.63764      .   S
    Zr12   O40       0.63757      .   S
    Zr4    O40       0.63757      .   S
    Zr13   O41       0.63756      .   S
    Zr5    O41       0.63756      .   S
    Zr24   O42       0.63756      .   S
    Zr10   O42       0.63756      .   S
    Zr25   O43       0.63756      .   S
    Zr11   O43       0.63756      .   S
    Zr9    O44       0.63756      .   S
    Zr21   O44       0.63756      .   S
    Zr7    O45       0.63756      .   S
    Zr17   O45       0.63756      .   S
    Zr6    O46       0.63755      .   S
    Zr16   O46       0.63755      .   S
    Zr8    O47       0.63756      .   S
    Zr20   O47       0.63756      .   S
    Zr4    O48       0.63764      .   S
    Zr14   O48       0.63764      .   S
    Zr5    O49       0.63763      .   S
    Zr15   O49       0.63763      .   S
    Zr11   O50       0.63764      .   S
    Zr27   O50       0.63764      .   S
    Zr10   O51       0.63764      .   S
    Zr26   O51       0.63764      .   S
    Zr16   O52       1.03736      .   S
    Zr0    O52       1.03736      .   S
    Zr17   O53       1.03736      .   S
    Zr1    O53       1.03736      .   S
    Zr20   O54       1.03733      .   S
    Zr0    O54       1.03733      .   S
    Zr21   O55       1.03733      .   S
    Zr1    O55       1.03733      .   S
    Zr14   O56       1.03109      .   S
    Zr0    O56       1.03109      .   S
    Zr15   O57       1.03109      .   S
    Zr1    O57       1.03109      .   S
    Zr26   O58       1.03113      .   S
    Zr0    O58       1.03113      .   S
    Zr27   O59       1.03111      .   S
    Zr1    O59       1.03111      .   S
    Zr0    O60       1.37589      .   S
    Zr2    O60       1.37589      .   S
    Zr1    O61       1.37589      .   S
    Zr3    O61       1.37589      .   S
    N62    O63       5.39139  1_455   S
    Zr9    O63       1.82544      .   S
    N62    O64       5.39146      .   S
    Zr10   O64       1.82546      .   S
    N62    O65       5.39136  1_545   S
    Zr4    O65       1.82542      .   S
    N62    O66       5.39139  1_445   S
    Zr7    O66       1.82545      .   S
    N67    O68       5.39144      .   S
    Zr8    O68       1.82543      .   S
    N67    O69       5.39150      .   S
    Zr11   O69       1.82545      .   S
    N67    O70       5.39140  1_545   S
    Zr5    O70       1.82543      .   S
    N67    O71       5.39143  1_545   S
    Zr6    O71       1.82546      .   S
    N72    O73       2.77606  1_556   S
    Zr2    O73       3.81004      .   S
    N72    O74       2.77559      .   S
    Zr0    O74       3.80918      .   S
    N75    O76       2.77579  1_556   S
    Zr3    O76       3.80977      .   S
    N75    O77       2.77586      .   S
    Zr1    O77       3.80945      .   S
