# CIF file generated by openbabel 2.4.90, see http://openbabel.sf.net
data_I
_chemical_name_common ''
_cell_length_a 22.222
_cell_length_b 16.168
_cell_length_c 15.922
_cell_angle_alpha 89.998
_cell_angle_beta 91.136
_cell_angle_gamma 89.999
_space_group_name_H-M_alt 'P 1'
_space_group_name_Hall 'P 1'
loop_
    _symmetry_equiv_pos_as_xyz
    x,y,z
loop_
    _atom_site_label
    _atom_site_type_symbol
    _atom_site_fract_x
    _atom_site_fract_y
    _atom_site_fract_z
    _atom_site_occupancy
    C0      C    0.25022   0.50000   0.58640   1.000
    C1      C    0.75022   0.50000   0.58640   1.000
    C2      C    0.24979   0.50001   0.41356   1.000
    C3      C    0.74979   0.50001   0.41356   1.000
    C4      C    0.06935   0.83681   0.36492   1.000
    C5      C    0.56936   0.83681   0.36492   1.000
    C6      C    0.12739   0.70234   0.63514   1.000
    C7      C    0.62740   0.70234   0.63514   1.000
    C8      C    0.12819   0.70493   0.36611   1.000
    C9      C    0.62819   0.70493   0.36611   1.000
    C10     C    0.06839   0.83405   0.63504   1.000
    C11     C    0.56839   0.83405   0.63504   1.000
    C12     C    0.43065   0.83681   0.63504   1.000
    C13     C    0.93065   0.83681   0.63504   1.000
    C14     C    0.37261   0.70235   0.36482   1.000
    C15     C    0.87261   0.70235   0.36482   1.000
    C16     C    0.37181   0.70493   0.63385   1.000
    C17     C    0.87182   0.70493   0.63385   1.000
    C18     C    0.43162   0.83406   0.36492   1.000
    C19     C    0.93162   0.83406   0.36492   1.000
    C20     C    0.43065   0.16319   0.63504   1.000
    C21     C    0.93065   0.16319   0.63504   1.000
    C22     C    0.37261   0.29767   0.36482   1.000
    C23     C    0.87261   0.29767   0.36482   1.000
    C24     C    0.37182   0.29507   0.63385   1.000
    C25     C    0.87182   0.29507   0.63380   1.000
    C26     C    0.43162   0.16596   0.36492   1.000
    C27     C    0.93162   0.16596   0.36492   1.000
    C28     C    0.06936   0.16320   0.36492   1.000
    C29     C    0.56936   0.16320   0.36492   1.000
    C30     C    0.12739   0.29766   0.63514   1.000
    C31     C    0.62740   0.29765   0.63514   1.000
    C32     C    0.12819   0.29508   0.36611   1.000
    C33     C    0.62820   0.29507   0.36611   1.000
    C34     C    0.06839   0.16595   0.63504   1.000
    C35     C    0.56839   0.16595   0.63504   1.000
    C36     C    0.34888   0.49998   0.71426   1.000
    C37     C    0.84888   0.50000   0.71426   1.000
    C38     C    0.16325   0.50000   0.72737   1.000
    C39     C    0.66326   0.50000   0.72737   1.000
    C40     C    0.16687   0.49999   0.88630   1.000
    C41     C    0.66687   0.50000   0.88637   1.000
    C42     C    0.36051   0.49997   0.87325   1.000
    C43     C    0.86052   0.50000   0.87325   1.000
    C44     C    0.15113   0.50003   0.28570   1.000
    C45     C    0.65113   0.50001   0.28570   1.000
    C46     C    0.33675   0.50001   0.27200   1.000
    C47     C    0.83676   0.50001   0.27259   1.000
    C48     C    0.33313   0.50001   0.11359   1.000
    C49     C    0.83314   0.50001   0.11359   1.000
    C50     C    0.13949   0.50004   0.12671   1.000
    C51     C    0.63949   0.50001   0.12671   1.000
    C52     C    0.13110   0.69561   0.50060   1.000
    C53     C    0.63110   0.69561   0.50060   1.000
    C54     C    0.03176   0.92388   0.49978   1.000
    C55     C    0.53176   0.92388   0.49978   1.000
    C56     C    0.08166   0.80693   0.42422   1.000
    C57     C    0.58166   0.80693   0.42422   1.000
    C58     C    0.11387   0.73202   0.57630   1.000
    C59     C    0.61388   0.73202   0.57630   1.000
    C60     C    0.11433   0.73348   0.42458   1.000
    C61     C    0.61433   0.73348   0.42458   1.000
    C62     C    0.06515   0.84397   0.49994   1.000
    C63     C    0.56516   0.84397   0.49994   1.000
    C64     C    0.16957   0.61941   0.50134   1.000
    C65     C    0.66957   0.61941   0.50134   1.000
    C66     C    0.08112   0.80540   0.57599   1.000
    C67     C    0.58113   0.80540   0.57599   1.000
    C68     C    0.36890   0.69562   0.49900   1.000
    C69     C    0.86891   0.69562   0.49929   1.000
    C70     C    0.46825   0.92389   0.50018   1.000
    C71     C    0.96825   0.92389   0.50018   1.000
    C72     C    0.41835   0.80693   0.57574   1.000
    C73     C    0.91835   0.80693   0.57574   1.000
    C74     C    0.38613   0.73203   0.42360   1.000
    C75     C    0.88614   0.73203   0.42361   1.000
    C76     C    0.38567   0.73348   0.57538   1.000
    C77     C    0.88568   0.73348   0.57538   1.000
    C78     C    0.43485   0.84397   0.50002   1.000
    C79     C    0.93485   0.84397   0.50002   1.000
    C80     C    0.33044   0.61941   0.49862   1.000
    C81     C    0.83044   0.61941   0.49862   1.000
    C82     C    0.41888   0.80541   0.42397   1.000
    C83     C    0.91888   0.80541   0.42397   1.000
    C84     C    0.36891   0.30439   0.49930   1.000
    C85     C    0.86891   0.30439   0.49930   1.000
    C86     C    0.46825   0.07612   0.50018   1.000
    C87     C    0.96825   0.07612   0.50018   1.000
    C88     C    0.41835   0.19307   0.57574   1.000
    C89     C    0.91835   0.19307   0.57574   1.000
    C90     C    0.38613   0.26799   0.42362   1.000
    C91     C    0.88613   0.26799   0.42362   1.000
    C92     C    0.38568   0.26653   0.57538   1.000
    C93     C    0.88568   0.26653   0.57538   1.000
    C94     C    0.43485   0.15604   0.50002   1.000
    C95     C    0.93486   0.15604   0.50002   1.000
    C96     C    0.33044   0.38060   0.49862   1.000
    C97     C    0.83044   0.38060   0.49862   1.000
    C98     C    0.41888   0.19461   0.42397   1.000
    C99     C    0.91888   0.19461   0.42397   1.000
    C100    C    0.13110   0.30439   0.50067   1.000
    C101    C    0.63110   0.30439   0.50067   1.000
    C102    C    0.03176   0.07612   0.49978   1.000
    C103    C    0.53176   0.07612   0.49978   1.000
    C104    C    0.08166   0.19308   0.42422   1.000
    C105    C    0.58166   0.19307   0.42422   1.000
    C106    C    0.11387   0.26798   0.57635   1.000
    C107    C    0.61388   0.26798   0.57635   1.000
    C108    C    0.11433   0.26653   0.42458   1.000
    C109    C    0.61434   0.26653   0.42458   1.000
    C110    C    0.06515   0.15603   0.49994   1.000
    C111    C    0.56516   0.15603   0.49994   1.000
    C112    C    0.16957   0.38060   0.50134   1.000
    C113    C    0.66957   0.38059   0.50134   1.000
    C114    C    0.08113   0.19460   0.57599   1.000
    C115    C    0.58113   0.19460   0.57599   1.000
    C116    C    0.31020   0.49998   0.75530   1.000
    C117    C    0.81020   0.50000   0.75530   1.000
    C118    C    0.20568   0.50000   0.76290   1.000
    C119    C    0.70569   0.50000   0.76293   1.000
    C120    C    0.20780   0.49999   0.85001   1.000
    C121    C    0.70780   0.50000   0.85000   1.000
    C122    C    0.26442   0.49999   0.89077   1.000
    C123    C    0.76442   0.50000   0.89070   1.000
    C124    C    0.31634   0.49998   0.84240   1.000
    C125    C    0.81634   0.50000   0.84240   1.000
    C126    C    0.18981   0.50002   0.24466   1.000
    C127    C    0.68981   0.50001   0.24466   1.000
    C128    C    0.29432   0.50001   0.23703   1.000
    C129    C    0.79432   0.50001   0.23703   1.000
    C130    C    0.29221   0.50001   0.14996   1.000
    C131    C    0.79221   0.50001   0.14990   1.000
    C132    C    0.23559   0.50002   0.10900   1.000
    C133    C    0.73559   0.50001   0.10920   1.000
    C134    C    0.18367   0.50003   0.15756   1.000
    C135    C    0.68367   0.50001   0.15756   1.000
    C136    C    0.06209   1.00000   0.49962   1.000
    C137    C    0.56209   1.00000   0.49962   1.000
    C138    C    0.43792   0.00000   0.50034   1.000
    C139    C    0.93792   0.00000   0.50034   1.000
    C140    C    0.14868   0.99999   0.49982   1.000
    C141    C    0.64868   0.99999   0.49982   1.000
    C142    C    0.35133   0.00001   0.50014   1.000
    C143    C    0.85133   0.00001   0.50014   1.000
    C144    C    0.25588   0.49999   0.71640   1.000
    C145    C    0.75589   0.50000   0.71640   1.000
    C146    C    0.27420   0.49998   0.97915   1.000
    C147    C    0.77420   0.50000   0.97915   1.000
    C148    C    0.24412   0.50001   0.28351   1.000
    C149    C    0.74412   0.50001   0.28351   1.000
    C150    C    0.22581   0.50002   0.02081   1.000
    C151    C    0.72581   0.50001   0.02081   1.000
    C152    C    0.18496   0.59052   0.43041   1.000
    C153    C    0.68496   0.59052   0.43041   1.000
    C154    C    0.18521   0.59031   0.57295   1.000
    C155    C    0.68521   0.59031   0.57295   1.000
    C156    C    0.31505   0.59052   0.56955   1.000
    C157    C    0.81505   0.59052   0.56955   1.000
    C158    C    0.31480   0.59032   0.42701   1.000
    C159    C    0.81480   0.59032   0.42701   1.000
    C160    C    0.31505   0.40949   0.56955   1.000
    C161    C    0.81505   0.40949   0.56955   1.000
    C162    C    0.31480   0.40969   0.42701   1.000
    C163    C    0.81480   0.40969   0.42701   1.000
    C164    C    0.18496   0.40949   0.43041   1.000
    C165    C    0.68496   0.40949   0.43041   1.000
    C166    C    0.18521   0.40969   0.57295   1.000
    C167    C    0.68521   0.40969   0.57295   1.000
    O168    O    0.73070   0.50001   0.06501   1.000
    O169    O    0.75001   0.50000   0.99998   1.000
    O170    O    0.23070   0.50002   0.06490   1.000
    O171    O    0.25000   0.50000   0.99998   1.000
    O172    O    0.26390   0.50002   0.12948   1.000
    O173    O    0.20963   0.50002   0.13328   1.000
    O174    O    0.76390   0.50001   0.12955   1.000
    O175    O    0.70963   0.50001   0.13338   1.000
    O176    O    0.31267   0.50001   0.13177   1.000
    O177    O    0.81267   0.50001   0.13174   1.000
    O178    O    0.16158   0.50003   0.14214   1.000
    O179    O    0.66158   0.50001   0.14214   1.000
    O180    O    0.79327   0.50001   0.19346   1.000
    O181    O    0.29326   0.50001   0.19349   1.000
    O182    O    0.18674   0.50003   0.20111   1.000
    O183    O    0.68674   0.50001   0.20111   1.000
    O184    O    0.81554   0.50001   0.25481   1.000
    O185    O    0.76922   0.50001   0.26027   1.000
    O186    O    0.31554   0.50001   0.25451   1.000
    O187    O    0.26922   0.50001   0.26027   1.000
    O188    O    0.21696   0.50002   0.26408   1.000
    O189    O    0.17047   0.50003   0.26518   1.000
    O190    O    0.71697   0.50001   0.26408   1.000
    O191    O    0.67047   0.50001   0.26518   1.000
    O192    O    0.24695   0.50001   0.34853   1.000
    O193    O    0.74696   0.50001   0.34853   1.000
    O194    O    0.87937   0.28283   0.39422   1.000
    O195    O    0.37937   0.28283   0.39422   1.000
    O196    O    0.87937   0.71719   0.39421   1.000
    O197    O    0.37937   0.71719   0.39421   1.000
    O198    O    0.07550   0.82187   0.39457   1.000
    O199    O    0.57551   0.82187   0.39457   1.000
    O200    O    0.42525   0.18028   0.39444   1.000
    O201    O    0.92525   0.18028   0.39444   1.000
    O202    O    0.07551   0.17814   0.39457   1.000
    O203    O    0.57551   0.17813   0.39457   1.000
    O204    O    0.92525   0.81973   0.39444   1.000
    O205    O    0.42525   0.81973   0.39444   1.000
    O206    O    0.62127   0.28080   0.39535   1.000
    O207    O    0.12126   0.71920   0.39535   1.000
    O208    O    0.62126   0.71920   0.39535   1.000
    O209    O    0.12126   0.28080   0.39535   1.000
    O210    O    0.78230   0.45485   0.42028   1.000
    O211    O    0.78230   0.54516   0.42028   1.000
    O212    O    0.71738   0.54526   0.42198   1.000
    O213    O    0.71738   0.45475   0.42198   1.000
    O214    O    0.28229   0.45485   0.42028   1.000
    O215    O    0.28229   0.54516   0.42028   1.000
    O216    O    0.21737   0.54526   0.42198   1.000
    O217    O    0.21737   0.45475   0.42198   1.000
    O218    O    0.40250   0.76872   0.42378   1.000
    O219    O    0.37752   0.71382   0.46130   1.000
    O220    O    0.90251   0.76872   0.42379   1.000
    O221    O    0.87752   0.71382   0.46145   1.000
    O222    O    0.40251   0.23130   0.42379   1.000
    O223    O    0.37752   0.28619   0.46146   1.000
    O224    O    0.90251   0.23130   0.42379   1.000
    O225    O    0.87752   0.28619   0.46146   1.000
    O226    O    0.42687   0.17532   0.46199   1.000
    O227    O    0.92687   0.82469   0.46199   1.000
    O228    O    0.42686   0.82469   0.46199   1.000
    O229    O    0.92687   0.17532   0.46199   1.000
    O230    O    0.09799   0.77020   0.42440   1.000
    O231    O    0.07340   0.82545   0.46208   1.000
    O232    O    0.59800   0.22980   0.42440   1.000
    O233    O    0.57341   0.17455   0.46208   1.000
    O234    O    0.09799   0.22980   0.42440   1.000
    O235    O    0.07341   0.17455   0.46208   1.000
    O236    O    0.59800   0.77020   0.42440   1.000
    O237    O    0.57341   0.82545   0.46208   1.000
    O238    O    0.62272   0.28546   0.46262   1.000
    O239    O    0.12271   0.28546   0.46262   1.000
    O240    O    0.12271   0.71454   0.46259   1.000
    O241    O    0.62272   0.71454   0.46259   1.000
    O242    O    0.82262   0.39515   0.46281   1.000
    O243    O    0.32262   0.39515   0.46281   1.000
    O244    O    0.82262   0.60486   0.46281   1.000
    O245    O    0.32262   0.60486   0.46281   1.000
    O246    O    0.17726   0.60496   0.46587   1.000
    O247    O    0.67727   0.60496   0.46587   1.000
    O248    O    0.17726   0.39504   0.46587   1.000
    O249    O    0.67727   0.39504   0.46587   1.000
    O250    O    0.84967   0.34250   0.49896   1.000
    O251    O    0.82274   0.39504   0.53408   1.000
    O252    O    0.84967   0.65751   0.49895   1.000
    O253    O    0.82274   0.60496   0.53408   1.000
    O254    O    0.34967   0.65751   0.49881   1.000
    O255    O    0.32274   0.60496   0.53408   1.000
    O256    O    0.34967   0.34250   0.49896   1.000
    O257    O    0.32274   0.39504   0.53408   1.000
    O258    O    0.37729   0.71455   0.53719   1.000
    O259    O    0.87729   0.71455   0.53733   1.000
    O260    O    0.87730   0.28546   0.53734   1.000
    O261    O    0.37729   0.28546   0.53734   1.000
    O262    O    0.04692   0.03806   0.49970   1.000
    O263    O    0.04692   0.96194   0.49970   1.000
    O264    O    0.10538   0.99999   0.49972   1.000
    O265    O    0.54693   0.03806   0.49970   1.000
    O266    O    0.54693   0.96194   0.49970   1.000
    O267    O    0.60538   0.99999   0.49972   1.000
    O268    O    0.54846   0.11608   0.49986   1.000
    O269    O    0.50001   0.07612   0.49998   1.000
    O270    O    0.04845   0.11608   0.49986   1.000
    O271    O    0.00000   0.07612   0.49998   1.000
    O272    O    0.54846   0.88393   0.49986   1.000
    O273    O    0.50000   0.92388   0.49998   1.000
    O274    O    0.04846   0.88393   0.49986   1.000
    O275    O    0.00000   0.92389   0.49998   1.000
    O276    O    0.57315   0.17532   0.53796   1.000
    O277    O    0.07314   0.17532   0.53796   1.000
    O278    O    0.57314   0.82468   0.53796   1.000
    O279    O    0.07314   0.82468   0.53796   1.000
    O280    O    0.45155   0.88393   0.50010   1.000
    O281    O    0.42660   0.82545   0.53788   1.000
    O282    O    0.95155   0.88393   0.50010   1.000
    O283    O    0.92660   0.82545   0.53788   1.000
    O284    O    0.45155   0.11608   0.50010   1.000
    O285    O    0.42660   0.17456   0.53788   1.000
    O286    O    0.95155   0.11608   0.50010   1.000
    O287    O    0.92660   0.17455   0.53788   1.000
    O288    O    0.89463   0.00000   0.50024   1.000
    O289    O    0.39462   0.00000   0.50024   1.000
    O290    O    0.95309   0.96194   0.50026   1.000
    O291    O    0.45308   0.96194   0.50026   1.000
    O292    O    0.45308   0.03806   0.50026   1.000
    O293    O    0.95309   0.03806   0.50026   1.000
    O294    O    0.15033   0.65751   0.50097   1.000
    O295    O    0.12248   0.71382   0.53845   1.000
    O296    O    0.65034   0.65751   0.50097   1.000
    O297    O    0.62249   0.71382   0.53845   1.000
    O298    O    0.15033   0.34249   0.50100   1.000
    O299    O    0.12249   0.28618   0.53851   1.000
    O300    O    0.65034   0.34249   0.50100   1.000
    O301    O    0.62249   0.28618   0.53851   1.000
    O302    O    0.17739   0.60486   0.53714   1.000
    O303    O    0.67739   0.60486   0.53714   1.000
    O304    O    0.67739   0.39514   0.53714   1.000
    O305    O    0.17739   0.39514   0.53714   1.000
    O306    O    0.28263   0.54526   0.57798   1.000
    O307    O    0.78263   0.54526   0.57798   1.000
    O308    O    0.28263   0.45475   0.57798   1.000
    O309    O    0.78263   0.45475   0.57798   1.000
    O310    O    0.21771   0.54516   0.57967   1.000
    O311    O    0.71771   0.54516   0.57967   1.000
    O312    O    0.21771   0.45485   0.57967   1.000
    O313    O    0.71771   0.45485   0.57967   1.000
    O314    O    0.40201   0.22980   0.57556   1.000
    O315    O    0.37875   0.28080   0.60461   1.000
    O316    O    0.90202   0.22980   0.57556   1.000
    O317    O    0.87875   0.28080   0.60459   1.000
    O318    O    0.90201   0.77020   0.57556   1.000
    O319    O    0.87875   0.71920   0.60461   1.000
    O320    O    0.40201   0.77020   0.57556   1.000
    O321    O    0.37874   0.71920   0.60461   1.000
    O322    O    0.42450   0.17813   0.60539   1.000
    O323    O    0.92450   0.17813   0.60539   1.000
    O324    O    0.92450   0.82187   0.60539   1.000
    O325    O    0.42450   0.82187   0.60539   1.000
    O326    O    0.59750   0.76871   0.57614   1.000
    O327    O    0.57476   0.81972   0.60551   1.000
    O328    O    0.09750   0.76871   0.57614   1.000
    O329    O    0.07475   0.81972   0.60551   1.000
    O330    O    0.59750   0.23129   0.57617   1.000
    O331    O    0.57476   0.18027   0.60551   1.000
    O332    O    0.09750   0.23129   0.57617   1.000
    O333    O    0.07476   0.18027   0.60551   1.000
    O334    O    0.62064   0.71718   0.60572   1.000
    O335    O    0.12063   0.71718   0.60572   1.000
    O336    O    0.62064   0.28282   0.60574   1.000
    O337    O    0.12063   0.28282   0.60574   1.000
    O338    O    0.25305   0.50000   0.65140   1.000
    O339    O    0.75305   0.50000   0.65140   1.000
    O340    O    0.82954   0.50000   0.73478   1.000
    O341    O    0.32954   0.49998   0.73478   1.000
    O342    O    0.28304   0.49999   0.73585   1.000
    O343    O    0.23078   0.49999   0.73965   1.000
    O344    O    0.78305   0.50000   0.73585   1.000
    O345    O    0.73079   0.50000   0.73966   1.000
    O346    O    0.68447   0.50000   0.74515   1.000
    O347    O    0.18447   0.50000   0.74513   1.000
    O348    O    0.31327   0.49998   0.79885   1.000
    O349    O    0.81327   0.50000   0.79885   1.000
    O350    O    0.20674   0.49999   0.80646   1.000
    O351    O    0.70674   0.50000   0.80646   1.000
    O352    O    0.33843   0.49997   0.85782   1.000
    O353    O    0.29038   0.49998   0.86658   1.000
    O354    O    0.83843   0.50000   0.85782   1.000
    O355    O    0.79038   0.50000   0.86655   1.000
    O356    O    0.68734   0.50000   0.86818   1.000
    O357    O    0.73611   0.50000   0.87035   1.000
    O358    O    0.18733   0.49999   0.86815   1.000
    O359    O    0.23611   0.49999   0.87039   1.000
    O360    O    0.76931   0.50000   0.93492   1.000
    O361    O    0.26931   0.49999   0.93496   1.000
    O362    O    0.25000   0.50000   0.49998   1.000
    O363    O    0.75001   0.50000   0.49998   1.000
loop_
    _geom_bond_atom_site_label_1
    _geom_bond_atom_site_label_2
    _geom_bond_distance
    _geom_bond_site_symmetry_2
    _ccdc_geom_bond_type
    C151   O168      0.70988      .   S
    C133   O168      0.70988      .   S
    C151   O169      0.63722  1_554   S
    C147   O169      0.63722      .   S
    C150   O170      0.70830      .   S
    C132   O170      0.70830      .   S
    C150   O171      0.63722  1_554   S
    C146   O171      0.63722      .   S
    C132   O172      0.70281      .   S
    C130   O172      0.70281      .   S
    C132   O173      0.70080      .   S
    C134   O173      0.70080      .   S
    C133   O174      0.70190      .   S
    C131   O174      0.70190      .   S
    C133   O175      0.69990      .   S
    C135   O175      0.69990      .   S
    C48    O176      0.54391      .   S
    C130   O176      0.54391      .   S
    C49    O177      0.54365      .   S
    C131   O177      0.54365      .   S
    C50    O178      0.54448      .   S
    C134   O178      0.54448      .   S
    C51    O179      0.54448      .   S
    C135   O179      0.54448      .   S
    C131   O180      0.69357      .   S
    C129   O180      0.69357      .   S
    C130   O181      0.69310      .   S
    C128   O181      0.69310      .   S
    C134   O182      0.69540      .   S
    C126   O182      0.69540      .   S
    C135   O183      0.69541      .   S
    C127   O183      0.69541      .   S
    C129   O184      0.54509      .   S
    C47    O184      0.54509      .   S
    C129   O185      0.67544      .   S
    C149   O185      0.67544      .   S
    C128   O186      0.54275      .   S
    C46    O186      0.54275      .   S
    C128   O187      0.67545      .   S
    C148   O187      0.67545      .   S
    C126   O188      0.67262      .   S
    C148   O188      0.67262      .   S
    C126   O189      0.54501      .   S
    C44    O189      0.54501      .   S
    C127   O190      0.67263      .   S
    C149   O190      0.67263      .   S
    C127   O191      0.54502      .   S
    C45    O191      0.54502      .   S
    C148   O192      1.03600      .   S
    C2     O192      1.03600      .   S
    C149   O193      1.03600      .   S
    C3     O193      1.03600      .   S
    C23    O194      0.54450      .   S
    C91    O194      0.54450      .   S
    C22    O195      0.54449      .   S
    C90    O195      0.54449      .   S
    C15    O196      0.54443      .   S
    C75    O196      0.54443      .   S
    C14    O197      0.54436      .   S
    C74    O197      0.54436      .   S
    C4     O198      0.54528      .   S
    C56    O198      0.54528      .   S
    C5     O199      0.54528      .   S
    C57    O199      0.54528      .   S
    C26    O200      0.54528      .   S
    C98    O200      0.54528      .   S
    C27    O201      0.54528      .   S
    C99    O201      0.54528      .   S
    C28    O202      0.54528      .   S
    C104   O202      0.54528      .   S
    C29    O203      0.54528      .   S
    C105   O203      0.54528      .   S
    C19    O204      0.54527      .   S
    C83    O204      0.54527      .   S
    C18    O205      0.54527      .   S
    C82    O205      0.54527      .   S
    C33    O206      0.54449      .   S
    C109   O206      0.54449      .   S
    C8     O207      0.54450      .   S
    C60    O207      0.54450      .   S
    C9     O208      0.54450      .   S
    C61    O208      0.54450      .   S
    C32    O209      0.54449      .   S
    C108   O209      0.54449      .   S
    C3     O210      1.03108      .   S
    C163   O210      1.03108      .   S
    C3     O211      1.03111      .   S
    C159   O211      1.03111      .   S
    C3     O212      1.03733      .   S
    C153   O212      1.03733      .   S
    C3     O213      1.03736      .   S
    C165   O213      1.03736      .   S
    C2     O214      1.03108      .   S
    C162   O214      1.03108      .   S
    C2     O215      1.03111      .   S
    C158   O215      1.03111      .   S
    C2     O216      1.03734      .   S
    C152   O216      1.03734      .   S
    C2     O217      1.03737      .   S
    C164   O217      1.03737      .   S
    C74    O218      0.69586      .   S
    C82    O218      0.69586      .   S
    C74    O219      0.69866      .   S
    C68    O219      0.69866      .   S
    C75    O220      0.69585      .   S
    C83    O220      0.69585      .   S
    C75    O221      0.70059      .   S
    C69    O221      0.70059      .   S
    C90    O222      0.69586      .   S
    C98    O222      0.69586      .   S
    C90    O223      0.70058      .   S
    C84    O223      0.70058      .   S
    C91    O224      0.69585      .   S
    C99    O224      0.69585      .   S
    C91    O225      0.70059      .   S
    C85    O225      0.70059      .   S
    C98    O226      0.70072      .   S
    C94    O226      0.70072      .   S
    C83    O227      0.70072      .   S
    C79    O227      0.70072      .   S
    C82    O228      0.70072      .   S
    C78    O228      0.70072      .   S
    C99    O229      0.70071      .   S
    C95    O229      0.70071      .   S
    C56    O230      0.69597      .   S
    C60    O230      0.69597      .   S
    C56    O231      0.70074      .   S
    C62    O231      0.70074      .   S
    C105   O232      0.69597      .   S
    C109   O232      0.69597      .   S
    C105   O233      0.70075      .   S
    C111   O233      0.70075      .   S
    C104   O234      0.69598      .   S
    C108   O234      0.69598      .   S
    C104   O235      0.70074      .   S
    C110   O235      0.70074      .   S
    C57    O236      0.69597      .   S
    C61    O236      0.69597      .   S
    C57    O237      0.70074      .   S
    C63    O237      0.70074      .   S
    C109   O238      0.70061      .   S
    C101   O238      0.70061      .   S
    C108   O239      0.70061      .   S
    C100   O239      0.70061      .   S
    C60    O240      0.70013      .   S
    C52    O240      0.70013      .   S
    C61    O241      0.70013      .   S
    C53    O241      0.70013      .   S
    C163   O242      0.63763      .   S
    C97    O242      0.63763      .   S
    C162   O243      0.63763      .   S
    C96    O243      0.63763      .   S
    C159   O244      0.63764      .   S
    C81    O244      0.63764      .   S
    C158   O245      0.63764      .   S
    C80    O245      0.63764      .   S
    C152   O246      0.63757      .   S
    C64    O246      0.63757      .   S
    C153   O247      0.63756      .   S
    C65    O247      0.63756      .   S
    C164   O248      0.63756      .   S
    C112   O248      0.63756      .   S
    C165   O249      0.63756      .   S
    C113   O249      0.63756      .   S
    C97    O250      0.74977      .   S
    C85    O250      0.74977      .   S
    C97    O251      0.63756      .   S
    C161   O251      0.63756      .   S
    C81    O252      0.74978      .   S
    C69    O252      0.74978      .   S
    C81    O253      0.63756      .   S
    C157   O253      0.63756      .   S
    C80    O254      0.74979      .   S
    C68    O254      0.74979      .   S
    C80    O255      0.63755      .   S
    C156   O255      0.63755      .   S
    C96    O256      0.74977      .   S
    C84    O256      0.74977      .   S
    C96    O257      0.63756      .   S
    C160   O257      0.63756      .   S
    C68    O258      0.70260      .   S
    C76    O258      0.70260      .   S
    C69    O259      0.70061      .   S
    C77    O259      0.70061      .   S
    C85    O260      0.70054      .   S
    C93    O260      0.70054      .   S
    C84    O261      0.70053      .   S
    C92    O261      0.70053      .   S
    C136   O262      0.70162  1_565   S
    C102   O262      0.70162      .   S
    C136   O263      0.70154      .   S
    C54    O263      0.70154      .   S
    C136   O264      0.96207      .   S
    C140   O264      0.96207      .   S
    C137   O265      0.70162  1_565   S
    C103   O265      0.70162      .   S
    C137   O266      0.70155      .   S
    C55    O266      0.70155      .   S
    C137   O267      0.96207      .   S
    C141   O267      0.96207      .   S
    C103   O268      0.74499      .   S
    C111   O268      0.74499      .   S
    C103   O269      0.70577      .   S
    C86    O269      0.70577      .   S
    C102   O270      0.74501      .   S
    C110   O270      0.74501      .   S
    C102   O271      0.70567      .   S
    C87    O271      0.70567  1_655   S
    C55    O272      0.74499      .   S
    C63    O272      0.74499      .   S
    C55    O273      0.70577      .   S
    C70    O273      0.70577      .   S
    C54    O274      0.74500      .   S
    C62    O274      0.74500      .   S
    C54    O275      0.70569      .   S
    C71    O275      0.70569  1_655   S
    C111   O276      0.70072      .   S
    C115   O276      0.70072      .   S
    C110   O277      0.70072      .   S
    C114   O277      0.70072      .   S
    C63    O278      0.70072      .   S
    C67    O278      0.70072      .   S
    C62    O279      0.70071      .   S
    C66    O279      0.70071      .   S
    C78    O280      0.74500      .   S
    C70    O280      0.74500      .   S
    C78    O281      0.70074      .   S
    C72    O281      0.70074      .   S
    C79    O282      0.74500      .   S
    C71    O282      0.74500      .   S
    C79    O283      0.70074      .   S
    C73    O283      0.70074      .   S
    C94    O284      0.74499      .   S
    C86    O284      0.74499      .   S
    C94    O285      0.70074      .   S
    C88    O285      0.70074      .   S
    C95    O286      0.74500      .   S
    C87    O286      0.74500      .   S
    C95    O287      0.70074      .   S
    C89    O287      0.70074      .   S
    C143   O288      0.96207      .   S
    C139   O288      0.96207      .   S
    C142   O289      0.96207      .   S
    C138   O289      0.96207      .   S
    C71    O290      0.70157      .   S
    C139   O290      0.70157  1_545   S
    C70    O291      0.70157      .   S
    C138   O291      0.70157  1_545   S
    C86    O292      0.70162      .   S
    C138   O292      0.70162      .   S
    C87    O293      0.70162      .   S
    C139   O293      0.70162      .   S
    C52    O294      0.74976      .   S
    C64    O294      0.74976      .   S
    C52    O295      0.70073      .   S
    C58    O295      0.70073      .   S
    C53    O296      0.74976      .   S
    C65    O296      0.74976      .   S
    C53    O297      0.70072      .   S
    C59    O297      0.70072      .   S
    C100   O298      0.74978      .   S
    C112   O298      0.74978      .   S
    C100   O299      0.70059      .   S
    C106   O299      0.70059      .   S
    C101   O300      0.74978      .   S
    C113   O300      0.74978      .   S
    C101   O301      0.70059      .   S
    C107   O301      0.70059      .   S
    C64    O302      0.63764      .   S
    C154   O302      0.63764      .   S
    C65    O303      0.63763      .   S
    C155   O303      0.63763      .   S
    C113   O304      0.63764      .   S
    C167   O304      0.63764      .   S
    C112   O305      0.63764      .   S
    C166   O305      0.63764      .   S
    C156   O306      1.03736      .   S
    C0     O306      1.03736      .   S
    C157   O307      1.03736      .   S
    C1     O307      1.03736      .   S
    C160   O308      1.03733      .   S
    C0     O308      1.03733      .   S
    C161   O309      1.03733      .   S
    C1     O309      1.03733      .   S
    C154   O310      1.03109      .   S
    C0     O310      1.03109      .   S
    C155   O311      1.03109      .   S
    C1     O311      1.03109      .   S
    C166   O312      1.03113      .   S
    C0     O312      1.03113      .   S
    C167   O313      1.03111      .   S
    C1     O313      1.03111      .   S
    C92    O314      0.69597      .   S
    C88    O314      0.69597      .   S
    C92    O315      0.54450      .   S
    C24    O315      0.54450      .   S
    C93    O316      0.69597      .   S
    C89    O316      0.69597      .   S
    C93    O317      0.54415      .   S
    C25    O317      0.54415      .   S
    C77    O318      0.69597      .   S
    C73    O318      0.69597      .   S
    C77    O319      0.54449      .   S
    C17    O319      0.54449      .   S
    C76    O320      0.69597      .   S
    C72    O320      0.69597      .   S
    C76    O321      0.54450      .   S
    C16    O321      0.54450      .   S
    C88    O322      0.54528      .   S
    C20    O322      0.54528      .   S
    C89    O323      0.54528      .   S
    C21    O323      0.54528      .   S
    C73    O324      0.54528      .   S
    C13    O324      0.54528      .   S
    C72    O325      0.54528      .   S
    C12    O325      0.54528      .   S
    C67    O326      0.69586      .   S
    C59    O326      0.69586      .   S
    C67    O327      0.54527      .   S
    C11    O327      0.54527      .   S
    C66    O328      0.69586      .   S
    C58    O328      0.69586      .   S
    C66    O329      0.54527      .   S
    C10    O329      0.54527      .   S
    C115   O330      0.69585      .   S
    C107   O330      0.69585      .   S
    C115   O331      0.54527      .   S
    C35    O331      0.54527      .   S
    C114   O332      0.69586      .   S
    C106   O332      0.69586      .   S
    C114   O333      0.54527      .   S
    C34    O333      0.54527      .   S
    C59    O334      0.54476      .   S
    C7     O334      0.54476      .   S
    C58    O335      0.54477      .   S
    C6     O335      0.54477      .   S
    C107   O336      0.54443      .   S
    C31    O336      0.54443      .   S
    C106   O337      0.54442      .   S
    C30    O337      0.54442      .   S
    C0     O338      1.03560      .   S
    C144   O338      1.03560      .   S
    C1     O339      1.03560      .   S
    C145   O339      1.03560      .   S
    C37    O340      0.54501      .   S
    C117   O340      0.54501      .   S
    C36    O341      0.54502      .   S
    C116   O341      0.54502      .   S
    C144   O342      0.67281      .   S
    C116   O342      0.67281      .   S
    C144   O343      0.67552      .   S
    C118   O343      0.67552      .   S
    C145   O344      0.67280      .   S
    C117   O344      0.67280      .   S
    C145   O345      0.67567      .   S
    C119   O345      0.67567      .   S
    C39    O346      0.54509      .   S
    C119   O346      0.54509      .   S
    C38    O347      0.54497      .   S
    C118   O347      0.54497      .   S
    C116   O348      0.69541      .   S
    C124   O348      0.69541      .   S
    C117   O349      0.69540      .   S
    C125   O349      0.69540      .   S
    C118   O350      0.69341      .   S
    C120   O350      0.69341      .   S
    C119   O351      0.69310      .   S
    C121   O351      0.69310      .   S
    C124   O352      0.54448      .   S
    C42    O352      0.54448      .   S
    C124   O353      0.69994      .   S
    C122   O353      0.69994      .   S
    C125   O354      0.54448      .   S
    C43    O354      0.54448      .   S
    C125   O355      0.69963      .   S
    C123   O355      0.69963      .   S
    C121   O356      0.54391      .   S
    C41    O356      0.54391      .   S
    C121   O357      0.70189      .   S
    C123   O357      0.70189      .   S
    C120   O358      0.54357      .   S
    C40    O358      0.54357      .   S
    C120   O359      0.70211      .   S
    C122   O359      0.70211      .   S
    C123   O360      0.71035      .   S
    C147   O360      0.71035      .   S
    C122   O361      0.70980      .   S
    C146   O361      0.70980      .   S
    C0     O362      1.37589      .   S
    C2     O362      1.37589      .   S
    C1     O363      1.37589      .   S
    C3     O363      1.37589      .   S
