# CIF file generated by openbabel 2.4.90, see http://openbabel.sf.net
data_I
_chemical_name_common ''
_cell_length_a 15.841
_cell_length_b 16.164
_cell_length_c 22.838
_cell_angle_alpha 90.009
_cell_angle_beta 89.993
_cell_angle_gamma 89.94
_space_group_name_H-M_alt 'P 1'
_space_group_name_Hall 'P 1'
loop_
    _symmetry_equiv_pos_as_xyz
    x,y,z
loop_
    _atom_site_label
    _atom_site_type_symbol
    _atom_site_fract_x
    _atom_site_fract_y
    _atom_site_fract_z
    _atom_site_occupancy
    Lv0     Lv   0.53642   0.24975   0.51195   1.000
    Lv1     Lv   0.51020   0.00186   0.26407   1.000
    Lv2     Lv   0.01037   0.99812   0.73627   1.000
    Lv3     Lv   0.99709   0.26535   0.49018   1.000
    Lv4     Lv   0.03634   0.75008   0.48811   1.000
    Lv5     Lv   0.49699   0.26543   0.00975   1.000
    Lv6     Lv   0.01020   0.00194   0.23612   1.000
    Lv7     Lv   0.53637   0.75016   0.01196   1.000
    Lv8     Lv   0.99680   0.73474   0.99098   1.000
    Lv9     Lv   0.49708   0.73460   0.50915   1.000
    Lv10    Lv   0.51030   0.99816   0.76367   1.000
    Lv11    Lv   0.03640   0.24979   0.98797   1.000
