# CIF file generated by openbabel 2.4.90, see http://openbabel.sf.net
data_I
_chemical_name_common ''
_cell_length_a 15.841
_cell_length_b 16.164
_cell_length_c 22.838
_cell_angle_alpha 90.009
_cell_angle_beta 89.993
_cell_angle_gamma 89.94
_space_group_name_H-M_alt 'P 1'
_space_group_name_Hall 'P 1'
loop_
    _symmetry_equiv_pos_as_xyz
    x,y,z
loop_
    _atom_site_label
    _atom_site_type_symbol
    _atom_site_fract_x
    _atom_site_fract_y
    _atom_site_fract_z
    _atom_site_occupancy
    N0      N    0.53642   0.24975   0.51195   1.000
    N1      N    0.51020   0.00186   0.26407   1.000
    N2      N    0.01037   0.99812   0.73627   1.000
    N3      N    0.99709   0.26535   0.49018   1.000
    N4      N    0.03634   0.75008   0.48811   1.000
    N5      N    0.49699   0.26543   0.00975   1.000
    N6      N    0.01020   0.00194   0.23612   1.000
    N7      N    0.53637   0.75016   0.01196   1.000
    N8      N    0.99680   0.73474   0.99098   1.000
    N9      N    0.49708   0.73460   0.50915   1.000
    N10     N    0.51030   0.99816   0.76367   1.000
    N11     N    0.03640   0.24979   0.98797   1.000
    Zr12    Zr   0.26199   0.50254   0.24434   1.000
    O13     O    0.35073   0.34971   0.25070   1.000
    O14     O    0.17208   0.65487   0.24065   1.000
    O15     O    0.16595   0.41645   0.32939   1.000
    O16     O    0.34449   0.58617   0.33808   1.000
    O17     O    0.18335   0.41138   0.15321   1.000
    O18     O    0.35984   0.59335   0.16348   1.000
    Zr19    Zr   0.76205   0.49743   0.75544   1.000
    O20     O    0.68334   0.58858   0.84662   1.000
    O21     O    0.84457   0.41386   0.66151   1.000
    O22     O    0.66599   0.58344   0.67019   1.000
    O23     O    0.67219   0.34514   0.75913   1.000
    O24     O    0.85078   0.65029   0.74923   1.000
    O25     O    0.85989   0.40660   0.83634   1.000
    Zr26    Zr   0.76155   0.50273   0.25584   1.000
    O27     O    0.67182   0.65494   0.25961   1.000
    O28     O    0.66567   0.41662   0.17065   1.000
    O29     O    0.68314   0.41141   0.34683   1.000
    O30     O    0.85954   0.59333   0.33674   1.000
    O31     O    0.84393   0.58657   0.16213   1.000
    O32     O    0.85046   0.34984   0.24940   1.000
    Zr33    Zr   0.26202   0.49743   0.74453   1.000
    O34     O    0.35989   0.40661   0.66361   1.000
    O35     O    0.18332   0.58856   0.65338   1.000
    O36     O    0.17219   0.34512   0.74081   1.000
    O37     O    0.16587   0.58344   0.82984   1.000
    O38     O    0.34452   0.41387   0.83843   1.000
    O39     O    0.35072   0.65030   0.75074   1.000
loop_
    _geom_bond_atom_site_label_1
    _geom_bond_atom_site_label_2
    _geom_bond_distance
    _geom_bond_site_symmetry_2
    _ccdc_geom_bond_type
    Zr12   O13       2.84476      .   S
    N1     O13       6.16921      .   S
    Zr12   O14       2.84453      .   S
    N6     O14       6.16679  1_545   S
    Zr12   O15       2.83347      .   S
    N3     O15       5.15940  1_655   S
    Zr12   O16       2.85004      .   S
    N9     O16       5.18397      .   S
    Zr12   O17       2.83874      .   S
    N11    O17       5.14716  1_556   S
    Zr12   O18       2.82349      .   S
    N7     O18       5.12193      .   S
    Zr19   O20       2.83829      .   S
    N7     O20       5.14608  1_554   S
    Zr19   O21       2.85123      .   S
    N3     O21       5.18587      .   S
    Zr19   O22       2.83492      .   S
    N9     O22       5.16198      .   S
    Zr19   O23       2.84622      .   S
    N10    O23       6.17028  1_565   S
    Zr19   O24       2.84739      .   S
    N2     O24       6.17414  1_455   S
    Zr19   O25       2.82278      .   S
    N11    O25       5.12100  1_455   S
    Zr26   O27       2.84150      .   S
    N1     O27       6.16274  1_545   S
    Zr26   O28       2.83433      .   S
    N5     O28       5.16032      .   S
    Zr26   O29       2.83624      .   S
    N0     O29       5.14428      .   S
    Zr26   O30       2.82358      .   S
    N4     O30       5.12139  1_455   S
    Zr26   O31       2.85015      .   S
    N8     O31       5.18585  1_556   S
    Zr26   O32       2.84695      .   S
    N6     O32       6.17154  1_455   S
    Zr33   O34       2.82262      .   S
    N0     O34       5.12105      .   S
    Zr33   O35       2.83821      .   S
    N4     O35       5.14541      .   S
    Zr33   O36       2.84614      .   S
    N2     O36       6.17016  1_565   S
    Zr33   O37       2.83609      .   S
    N8     O37       5.16498  1_655   S
    Zr33   O38       2.85118      .   S
    N5     O38       5.18570  1_554   S
    Zr33   O39       2.84750      .   S
    N10    O39       6.17432      .   S
