# CIF file generated by openbabel 2.4.90, see http://openbabel.sf.net
data_I
_chemical_name_common ''
_cell_length_a 15.841
_cell_length_b 16.164
_cell_length_c 22.838
_cell_angle_alpha 90.009
_cell_angle_beta 89.993
_cell_angle_gamma 89.94
_space_group_name_H-M_alt 'P 1'
_space_group_name_Hall 'P 1'
loop_
    _symmetry_equiv_pos_as_xyz
    x,y,z
loop_
    _atom_site_label
    _atom_site_type_symbol
    _atom_site_fract_x
    _atom_site_fract_y
    _atom_site_fract_z
    _atom_site_occupancy
    Zr0     Zr   0.68970   0.55916   0.25980   1.000
    Zr1     Zr   0.83312   0.44543   0.25261   1.000
    Zr2     Zr   0.18992   0.44090   0.74046   1.000
    Zr3     Zr   0.33330   0.55465   0.74754   1.000
    Zr4     Zr   0.68994   0.44092   0.75948   1.000
    Zr5     Zr   0.83334   0.55463   0.75240   1.000
    Zr6     Zr   0.18980   0.55907   0.24038   1.000
    Zr7     Zr   0.33337   0.44541   0.24740   1.000
    Zr8     Zr   0.83627   0.57991   0.16946   1.000
    Zr9     Zr   0.16443   0.57697   0.81743   1.000
    Zr10    Zr   0.69204   0.41906   0.34137   1.000
    Zr11    Zr   0.35505   0.41065   0.67306   1.000
    Zr12    Zr   0.33783   0.42140   0.83120   1.000
    Zr13    Zr   0.66441   0.42291   0.18296   1.000
    Zr14    Zr   0.19191   0.58073   0.65871   1.000
    Zr15    Zr   0.85461   0.58898   0.32761   1.000
    Zr16    Zr   0.83787   0.42142   0.66871   1.000
    Zr17    Zr   0.16453   0.42276   0.31700   1.000
    Zr18    Zr   0.69192   0.58070   0.84127   1.000
    Zr19    Zr   0.35496   0.58934   0.17288   1.000
    Zr20    Zr   0.33761   0.57869   0.33095   1.000
    Zr21    Zr   0.66455   0.57710   0.68261   1.000
    Zr22    Zr   0.19203   0.41925   0.15856   1.000
    Zr23    Zr   0.85501   0.41057   0.82690   1.000
    Zr24    Zr   0.77239   0.60980   0.19588   1.000
    Zr25    Zr   0.87114   0.51030   0.17996   1.000
    Zr26    Zr   0.23279   0.60457   0.79561   1.000
    Zr27    Zr   0.12999   0.50785   0.80487   1.000
    Zr28    Zr   0.76854   0.40568   0.32739   1.000
    Zr29    Zr   0.64424   0.47529   0.32026   1.000
    Zr30    Zr   0.39635   0.46936   0.69703   1.000
    Zr31    Zr   0.27684   0.39583   0.67977   1.000
    Zr32    Zr   0.27334   0.39232   0.80518   1.000
    Zr33    Zr   0.37396   0.49013   0.81999   1.000
    Zr34    Zr   0.73267   0.39516   0.20488   1.000
    Zr35    Zr   0.63019   0.49235   0.19516   1.000
    Zr36    Zr   0.26829   0.59424   0.67280   1.000
    Zr37    Zr   0.14428   0.52437   0.67971   1.000
    Zr38    Zr   0.89620   0.53093   0.30280   1.000
    Zr39    Zr   0.77615   0.60321   0.32160   1.000
    Zr40    Zr   0.77339   0.39234   0.69477   1.000
    Zr41    Zr   0.87399   0.49016   0.67997   1.000
    Zr42    Zr   0.23308   0.39537   0.29526   1.000
    Zr43    Zr   0.12998   0.49197   0.30469   1.000
    Zr44    Zr   0.76831   0.59418   0.82717   1.000
    Zr45    Zr   0.64428   0.52435   0.82026   1.000
    Zr46    Zr   0.39636   0.53063   0.19689   1.000
    Zr47    Zr   0.27673   0.60416   0.17961   1.000
    Zr48    Zr   0.27288   0.60761   0.30503   1.000
    Zr49    Zr   0.37383   0.50988   0.31984   1.000
    Zr50    Zr   0.73293   0.60465   0.70443   1.000
    Zr51    Zr   0.63007   0.50799   0.69512   1.000
    Zr52    Zr   0.26847   0.40578   0.17261   1.000
    Zr53    Zr   0.14429   0.47560   0.17962   1.000
    Zr54    Zr   0.89634   0.46925   0.80291   1.000
    Zr55    Zr   0.77680   0.39578   0.82019   1.000
    O56     O    0.23025   0.41252   0.16559   1.000
    O57     O    0.16816   0.44743   0.16909   1.000
    O58     O    0.85371   0.54511   0.17471   1.000
    O59     O    0.80433   0.59486   0.18267   1.000
    O60     O    0.30092   0.42559   0.21000   1.000
    O61     O    0.31584   0.59675   0.17624   1.000
    O62     O    0.37566   0.55998   0.18488   1.000
    O63     O    0.23326   0.58161   0.20999   1.000
    O64     O    0.16705   0.51734   0.21000   1.000
    O65     O    0.85213   0.47787   0.21628   1.000
    O66     O    0.64730   0.45763   0.18906   1.000
    O67     O    0.69854   0.40904   0.19392   1.000
    O68     O    0.65994   0.52575   0.22748   1.000
    O69     O    0.73104   0.58448   0.22784   1.000
    O70     O    0.36486   0.48802   0.22214   1.000
    O71     O    0.78290   0.42030   0.22874   1.000
    O72     O    0.15989   0.52552   0.27254   1.000
    O73     O    0.23134   0.58334   0.27270   1.000
    O74     O    0.28323   0.42039   0.27133   1.000
    O75     O    0.35360   0.47764   0.28362   1.000
    O76     O    0.86466   0.48818   0.27770   1.000
    O77     O    0.80083   0.42556   0.29000   1.000
    O78     O    0.66697   0.51722   0.29003   1.000
    O79     O    0.73292   0.58119   0.29070   1.000
    O80     O    0.19881   0.40906   0.30613   1.000
    O81     O    0.87540   0.55995   0.31521   1.000
    O82     O    0.14725   0.45736   0.31084   1.000
    O83     O    0.30524   0.59315   0.31799   1.000
    O84     O    0.35572   0.54428   0.32539   1.000
    O85     O    0.66814   0.44717   0.33081   1.000
    O86     O    0.81538   0.59609   0.32460   1.000
    O87     O    0.73029   0.41237   0.33438   1.000
    O88     O    0.23010   0.58748   0.66575   1.000
    O89     O    0.16809   0.55255   0.66921   1.000
    O90     O    0.85593   0.45579   0.67434   1.000
    O91     O    0.80563   0.40688   0.68174   1.000
    O92     O    0.30079   0.57445   0.71017   1.000
    O93     O    0.31594   0.40324   0.67641   1.000
    O94     O    0.37570   0.44000   0.68504   1.000
    O95     O    0.16710   0.48264   0.71008   1.000
    O96     O    0.23338   0.41837   0.71011   1.000
    O97     O    0.85367   0.52240   0.71618   1.000
    O98     O    0.64731   0.54255   0.68886   1.000
    O99     O    0.69874   0.59088   0.69352   1.000
    O100    O    0.73166   0.41663   0.72712   1.000
    O101    O    0.66000   0.47445   0.72730   1.000
    O102    O    0.36483   0.51201   0.72228   1.000
    O103    O    0.78314   0.57964   0.72841   1.000
    O104    O    0.15996   0.47438   0.77266   1.000
    O105    O    0.23163   0.41661   0.77282   1.000
    O106    O    0.28305   0.57961   0.77158   1.000
    O107    O    0.35363   0.52239   0.78376   1.000
    O108    O    0.86484   0.51194   0.77765   1.000
    O109    O    0.80083   0.57441   0.78978   1.000
    O110    O    0.73337   0.41835   0.78983   1.000
    O111    O    0.66711   0.48263   0.78987   1.000
    O112    O    0.19861   0.59077   0.80652   1.000
    O113    O    0.87568   0.43991   0.81491   1.000
    O114    O    0.14721   0.54241   0.81115   1.000
    O115    O    0.30558   0.40686   0.81819   1.000
    O116    O    0.35589   0.45576   0.82559   1.000
    O117    O    0.81590   0.40317   0.82354   1.000
    O118    O    0.66810   0.55252   0.83076   1.000
    O119    O    0.73011   0.58744   0.83422   1.000
    O120    O    0.76141   0.50230   0.25620   1.000
    O121    O    0.26161   0.49778   0.74400   1.000
    O122    O    0.76164   0.49777   0.75594   1.000
    O123    O    0.26158   0.50224   0.24389   1.000
    N124    N    0.53642   0.24975   0.51195   1.000
    O125    O    0.60472   0.32010   0.43783   1.000
    O126    O    0.45776   0.31579   0.58270   1.000
    N127    N    0.51020   0.00186   0.26407   1.000
    O128    O    0.58209   0.80716   0.26338   1.000
    O129    O    0.43947   0.19688   0.25707   1.000
    N130    N    0.01037   0.99812   0.73627   1.000
    O131    O    0.93950   0.80314   0.74302   1.000
    O132    O    0.08236   0.19281   0.73709   1.000
    N133    N    0.99709   0.26535   0.49018   1.000
    O134    O    0.92709   0.33030   0.56759   1.000
    O135    O    0.06990   0.33037   0.41444   1.000
    N136    N    0.03634   0.75008   0.48811   1.000
    O137    O    0.95753   0.68393   0.41764   1.000
    O138    O    0.10462   0.67970   0.56223   1.000
    N139    N    0.49699   0.26543   0.00975   1.000
    O140    O    0.42701   0.33032   0.93234   1.000
    O141    O    0.56978   0.33052   0.08546   1.000
    N142    N    0.01020   0.00194   0.23612   1.000
    O143    O    0.08216   0.80719   0.23696   1.000
    O144    O    0.93938   0.19695   0.24296   1.000
    N145    N    0.53637   0.75016   0.01196   1.000
    O146    O    0.60463   0.67973   0.93780   1.000
    O147    O    0.45768   0.68415   0.08262   1.000
    N148    N    0.99680   0.73474   0.99098   1.000
    O149    O    0.06972   0.66945   0.91516   1.000
    O150    O    0.92631   0.67041   0.06843   1.000
    N151    N    0.49708   0.73460   0.50915   1.000
    O152    O    0.42699   0.66980   0.43183   1.000
    O153    O    0.56992   0.66946   0.58493   1.000
    N154    N    0.51030   0.99816   0.76367   1.000
    O155    O    0.43943   0.80318   0.75696   1.000
    O156    O    0.58232   0.19284   0.76281   1.000
    N157    N    0.03640   0.24979   0.98797   1.000
    O158    O    0.95773   0.31577   0.91724   1.000
    O159    O    0.10470   0.32022   0.06207   1.000
loop_
    _geom_bond_atom_site_label_1
    _geom_bond_atom_site_label_2
    _geom_bond_distance
    _geom_bond_site_symmetry_2
    _ccdc_geom_bond_type
    Zr22   O56       0.63561      .   S
    Zr52   O56       0.63561      .   S
    Zr22   O57       0.63860      .   S
    Zr53   O57       0.63860      .   S
    Zr8    O58       0.63792      .   S
    Zr25   O58       0.63792      .   S
    Zr8    O59       0.63645      .   S
    Zr24   O59       0.63645      .   S
    Zr52   O60       1.04715      .   S
    Zr7    O60       1.04715      .   S
    Zr19   O61       0.63565      .   S
    Zr47   O61       0.63565      .   S
    Zr19   O62       0.63835      .   S
    Zr46   O62       0.63835      .   S
    Zr47   O63       1.04350      .   S
    Zr6    O63       1.04350      .   S
    Zr53   O64       1.03282      .   S
    Zr6    O64       1.03282      .   S
    Zr25   O65       1.02671      .   S
    Zr1    O65       1.02671      .   S
    Zr13   O66       0.63834      .   S
    Zr35   O66       0.63834      .   S
    Zr13   O67       0.63640      .   S
    Zr34   O67       0.63640      .   S
    Zr35   O68       1.02908      .   S
    Zr0    O68       1.02908      .   S
    Zr24   O69       1.06292      .   S
    Zr0    O69       1.06292      .   S
    Zr46   O70       1.02801      .   S
    Zr7    O70       1.02801      .   S
    Zr34   O71       1.04686      .   S
    Zr1    O71       1.04686      .   S
    Zr6    O72       1.02882      .   S
    Zr43   O72       1.02882      .   S
    Zr6    O73       1.06419      .   S
    Zr48   O73       1.06419      .   S
    Zr7    O74       1.04584      .   S
    Zr42   O74       1.04584      .   S
    Zr7    O75       1.02896      .   S
    Zr49   O75       1.02896      .   S
    Zr1    O76       1.02772      .   S
    Zr38   O76       1.02772      .   S
    Zr1    O77       1.04616      .   S
    Zr28   O77       1.04616      .   S
    Zr0    O78       1.03260      .   S
    Zr29   O78       1.03260      .   S
    Zr0    O79       1.04605      .   S
    Zr39   O79       1.04605      .   S
    Zr42   O80       0.63652      .   S
    Zr17   O80       0.63652      .   S
    Zr38   O81       0.63913      .   S
    Zr15   O81       0.63913      .   S
    Zr43   O82       0.63816      .   S
    Zr17   O82       0.63816      .   S
    Zr48   O83       0.63632      .   S
    Zr20   O83       0.63632      .   S
    Zr49   O84       0.63818      .   S
    Zr20   O84       0.63818      .   S
    Zr29   O85       0.63848      .   S
    Zr10   O85       0.63848      .   S
    Zr39   O86       0.63559      .   S
    Zr15   O86       0.63559      .   S
    Zr28   O87       0.63571      .   S
    Zr10   O87       0.63571      .   S
    Zr14   O88       0.63554      .   S
    Zr36   O88       0.63554      .   S
    Zr14   O89       0.63853      .   S
    Zr37   O89       0.63853      .   S
    Zr16   O90       0.63819      .   S
    Zr41   O90       0.63819      .   S
    Zr16   O91       0.63632      .   S
    Zr40   O91       0.63632      .   S
    Zr36   O92       1.04679      .   S
    Zr3    O92       1.04679      .   S
    Zr11   O93       0.63564      .   S
    Zr31   O93       0.63564      .   S
    Zr11   O94       0.63830      .   S
    Zr30   O94       0.63830      .   S
    Zr37   O95       1.03279      .   S
    Zr2    O95       1.03279      .   S
    Zr31   O96       1.04220      .   S
    Zr2    O96       1.04220      .   S
    Zr41   O97       1.02891      .   S
    Zr5    O97       1.02891      .   S
    Zr21   O98       0.63821      .   S
    Zr51   O98       0.63821      .   S
    Zr21   O99       0.63659      .   S
    Zr50   O99       0.63659      .   S
    Zr40   O100      1.06595      .   S
    Zr4    O100      1.06595      .   S
    Zr51   O101      1.02885      .   S
    Zr4    O101      1.02885      .   S
    Zr30   O102      1.02778      .   S
    Zr3    O102      1.02778      .   S
    Zr50   O103      1.04665      .   S
    Zr5    O103      1.04665      .   S
    Zr2    O104      1.02873      .   S
    Zr27   O104      1.02873      .   S
    Zr2    O105      1.06609      .   S
    Zr32   O105      1.06609      .   S
    Zr3    O106      1.04734      .   S
    Zr26   O106      1.04734      .   S
    Zr3    O107      1.02953      .   S
    Zr33   O107      1.02953      .   S
    Zr5    O108      1.02824      .   S
    Zr54   O108      1.02824      .   S
    Zr5    O109      1.04687      .   S
    Zr44   O109      1.04687      .   S
    Zr4    O110      1.04243      .   S
    Zr55   O110      1.04243      .   S
    Zr4    O111      1.03269      .   S
    Zr45   O111      1.03269      .   S
    Zr26   O112      0.63664      .   S
    Zr9    O112      0.63664      .   S
    Zr54   O113      0.63836      .   S
    Zr23   O113      0.63836      .   S
    Zr27   O114      0.63823      .   S
    Zr9    O114      0.63823      .   S
    Zr32   O115      0.63614      .   S
    Zr12   O115      0.63614      .   S
    Zr33   O116      0.63812      .   S
    Zr12   O116      0.63812      .   S
    Zr55   O117      0.63565      .   S
    Zr23   O117      0.63565      .   S
    Zr45   O118      0.63849      .   S
    Zr18   O118      0.63849      .   S
    Zr44   O119      0.63563      .   S
    Zr18   O119      0.63563      .   S
    Zr0    O120      1.46282      .   S
    Zr1    O120      1.46282      .   S
    Zr2    O121      1.46408      .   S
    Zr3    O121      1.46408      .   S
    Zr4    O122      1.46407      .   S
    Zr5    O122      1.46407      .   S
    Zr6    O123      1.46330      .   S
    Zr7    O123      1.46330      .   S
    N124   O125      2.30914      .   S
    Zr10   O125      3.05441      .   S
    N124   O126      2.30190      .   S
    Zr11   O126      3.04144      .   S
    N127   O128      3.34574  1_545   S
    Zr0    O128      4.35518      .   S
    N127   O129      3.34819      .   S
    Zr7    O129      4.35870      .   S
    N130   O131      3.35022  1_455   S
    Zr5    O131      4.36170      .   S
    N130   O132      3.34835  1_565   S
    Zr2    O132      4.35952      .   S
    N133   O134      2.33520      .   S
    Zr16   O134      3.08129      .   S
    N133   O135      2.33014  1_655   S
    Zr17   O135      3.07152      .   S
    N136   O137      2.30098  1_455   S
    Zr15   O137      3.04083      .   S
    N136   O138      2.30819      .   S
    Zr14   O138      3.05348      .   S
    N139   O140      2.33510  1_554   S
    Zr12   O140      3.08155      .   S
    N139   O141      2.33006      .   S
    Zr13   O141      3.07245      .   S
    N142   O143      3.34681  1_545   S
    Zr6    O143      4.35718      .   S
    N142   O144      3.34844  1_455   S
    Zr1    O144      4.35876      .   S
    N145   O146      2.30877  1_554   S
    Zr18   O146      3.05407      .   S
    N145   O147      2.30189      .   S
    Zr19   O147      3.04168      .   S
    N148   O149      2.33288  1_655   S
    Zr9    O149      3.07583      .   S
    N148   O150      2.33657  1_556   S
    Zr8    O150      3.08264      .   S
    N151   O152      2.33456      .   S
    Zr20   O152      3.07994      .   S
    N151   O153      2.33111      .   S
    Zr21   O153      3.07385      .   S
    N154   O155      3.35025      .   S
    Zr3    O155      4.36172      .   S
    N154   O156      3.34838  1_565   S
    Zr4    O156      4.35953      .   S
    N157   O158      2.30172  1_455   S
    Zr23   O158      3.04126      .   S
    N157   O159      2.30941  1_556   S
    Zr22   O159      3.05551      .   S
