# CIF file generated by openbabel 2.4.90, see http://openbabel.sf.net
data_I
_chemical_name_common ''
_cell_length_a 16.645
_cell_length_b 16.816
_cell_length_c 27.26
_cell_angle_alpha 90.069
_cell_angle_beta 90.16
_cell_angle_gamma 89.401
_space_group_name_H-M_alt 'P 1'
_space_group_name_Hall 'P 1'
loop_
    _symmetry_equiv_pos_as_xyz
    x,y,z
loop_
    _atom_site_label
    _atom_site_type_symbol
    _atom_site_fract_x
    _atom_site_fract_y
    _atom_site_fract_z
    _atom_site_occupancy
    H0      H    0.44073   0.46297   0.40413   1.000
    H1      H    0.94081   0.46304   0.40415   1.000
    H2      H    0.16741   0.52361   0.47073   1.000
    H3      H    0.66733   0.52367   0.47066   1.000
    H4      H    0.46641   0.68736   0.46461   1.000
    H5      H    0.96658   0.68740   0.46466   1.000
    H6      H    0.21307   0.58869   0.67259   1.000
    H7      H    0.71282   0.58840   0.67251   1.000
    H8      H    0.30946   0.95779   0.59809   1.000
    H9      H    0.80940   0.95778   0.59808   1.000
    H10     H    0.08590   0.02771   0.52953   1.000
    H11     H    0.58586   0.02772   0.52952   1.000
    H12     H    0.29069   0.18240   0.53674   1.000
    H13     H    0.79065   0.18240   0.53676   1.000
    H14     H    0.04253   0.08933   0.32556   1.000
    H15     H    0.54250   0.08933   0.32552   1.000
    H16     H    0.06222   0.53680   0.90565   1.000
    H17     H    0.56195   0.53736   0.90550   1.000
    H18     H    0.33446   0.47791   0.97056   1.000
    H19     H    0.83456   0.47761   0.97054   1.000
    H20     H    0.03397   0.31207   0.96467   1.000
    H21     H    0.53403   0.31257   0.96456   1.000
    H22     H    0.28998   0.41443   0.17364   1.000
    H23     H    0.78982   0.41438   0.17367   1.000
    H24     H    0.19341   0.04400   0.09751   1.000
    H25     H    0.69337   0.04457   0.09758   1.000
    H26     H    0.41854   0.97518   0.03114   1.000
    H27     H    0.91794   0.97406   0.03114   1.000
    H28     H    0.21463   0.81926   0.03637   1.000
    H29     H    0.71281   0.81971   0.03641   1.000
    H30     H    0.46248   0.91180   0.82678   1.000
    H31     H    0.96245   0.90996   0.82710   1.000
    H32     H    0.06287   0.54061   0.59592   1.000
    H33     H    0.56290   0.54059   0.59591   1.000
    H34     H    0.33622   0.47986   0.52952   1.000
    H35     H    0.83620   0.47987   0.52951   1.000
    H36     H    0.03715   0.31621   0.53549   1.000
    H37     H    0.53717   0.31619   0.53547   1.000
    H38     H    0.29013   0.41542   0.32536   1.000
    H39     H    0.79005   0.41543   0.32500   1.000
    H40     H    0.19438   0.04605   0.40200   1.000
    H41     H    0.69440   0.04606   0.40202   1.000
    H42     H    0.41791   0.97610   0.47060   1.000
    H43     H    0.91796   0.97615   0.47059   1.000
    H44     H    0.21315   0.82139   0.46326   1.000
    H45     H    0.71326   0.82137   0.46322   1.000
    H46     H    0.46197   0.91264   0.67508   1.000
    H47     H    0.96196   0.91275   0.67540   1.000
    H48     H    0.43985   0.46435   0.09535   1.000
    H49     H    0.93950   0.46412   0.09528   1.000
    H50     H    0.16728   0.52071   0.02975   1.000
    H51     H    0.66748   0.52077   0.02954   1.000
    H52     H    0.46969   0.68814   0.03526   1.000
    H53     H    0.96945   0.68805   0.03539   1.000
    H54     H    0.21495   0.58378   0.82428   1.000
    H55     H    0.71359   0.58296   0.82419   1.000
    H56     H    0.30788   0.95495   0.90300   1.000
    H57     H    0.80839   0.95526   0.90258   1.000
    H58     H    0.08361   0.02476   0.97015   1.000
    H59     H    0.58382   0.02425   0.96958   1.000
    H60     H    0.28811   0.17980   0.96426   1.000
    H61     H    0.78830   0.17948   0.96460   1.000
    H62     H    0.04242   0.08918   0.17384   1.000
    H63     H    0.54240   0.08922   0.17380   1.000
    H64     H    0.06137   0.75461   0.75111   1.000
    H65     H    0.56091   0.75436   0.75084   1.000
    H66     H    0.19079   0.25833   0.24998   1.000
    H67     H    0.69077   0.25834   0.24997   1.000
    H68     H    0.44181   0.24573   0.24999   1.000
    H69     H    0.94176   0.24577   0.25002   1.000
    H70     H    0.31189   0.74485   0.75037   1.000
    H71     H    0.81249   0.74348   0.74983   1.000
    C72     C    0.47948   0.50584   0.42248   1.000
    C73     C    0.97957   0.50589   0.42252   1.000
    C74     C    0.05869   0.48389   0.43483   1.000
    C75     C    0.55861   0.48388   0.43400   1.000
    C76     C    0.10625   0.53877   0.45960   1.000
    C77     C    0.60615   0.53879   0.45962   1.000
    C78     C    0.07260   0.61267   0.47184   1.000
    C79     C    0.57247   0.61269   0.47178   1.000
    C80     C    0.49362   0.62960   0.45600   1.000
    C81     C    0.99376   0.62963   0.45635   1.000
    C82     C    0.43893   0.88675   0.70886   1.000
    C83     C    0.18998   0.61336   0.70680   1.000
    C84     C    0.68951   0.61298   0.70677   1.000
    C85     C    0.13393   0.67631   0.70579   1.000
    C86     C    0.63358   0.67602   0.70563   1.000
    C87     C    0.27222   0.00215   0.57928   1.000
    C88     C    0.77217   0.00214   0.57928   1.000
    C89     C    0.19297   0.98332   0.56619   1.000
    C90     C    0.69292   0.98331   0.56618   1.000
    C91     C    0.14719   0.04018   0.54104   1.000
    C92     C    0.64714   0.04019   0.54104   1.000
    C93     C    0.18285   0.11261   0.52924   1.000
    C94     C    0.68281   0.11261   0.52924   1.000
    C95     C    0.26186   0.12606   0.54512   1.000
    C96     C    0.76181   0.12606   0.54514   1.000
    C97     C    0.06539   0.11525   0.29174   1.000
    C98     C    0.56537   0.11526   0.29170   1.000
    C99     C    0.11992   0.17831   0.29395   1.000
    C100    C    0.61989   0.17832   0.29393   1.000
    N101    N    0.44737   0.57776   0.43194   1.000
    N102    N    0.94750   0.57783   0.43197   1.000
    N103    N    0.30629   0.07247   0.56997   1.000
    N104    N    0.80624   0.07247   0.56998   1.000
    N105    N    0.05424   0.42178   0.93274   1.000
    C106    C    0.02293   0.49414   0.92355   1.000
    C107    C    0.52274   0.49465   0.92347   1.000
    C108    C    0.44373   0.51716   0.93551   1.000
    C109    C    0.94392   0.51673   0.93554   1.000
    C110    C    0.39559   0.46238   0.95978   1.000
    C111    C    0.89569   0.46201   0.95979   1.000
    C112    C    0.42858   0.38807   0.97170   1.000
    C113    C    0.92860   0.38768   0.97175   1.000
    C114    C    0.00737   0.37018   0.95658   1.000
    C115    C    0.50735   0.37067   0.95650   1.000
    C116    C    0.31344   0.38876   0.20760   1.000
    C117    C    0.81331   0.38874   0.20763   1.000
    C118    C    0.36928   0.32569   0.20569   1.000
    C119    C    0.86917   0.32570   0.20573   1.000
    C120    C    0.23127   0.99980   0.07909   1.000
    C121    C    0.73085   0.00000   0.07913   1.000
    C122    C    0.31061   0.01903   0.06670   1.000
    C123    C    0.81030   0.01871   0.06676   1.000
    C124    C    0.35716   0.96236   0.04206   1.000
    C125    C    0.85646   0.96167   0.04205   1.000
    C126    C    0.32214   0.88974   0.02980   1.000
    C127    C    0.82087   0.88931   0.02980   1.000
    C128    C    0.24299   0.87582   0.04000   1.000
    C129    C    0.74158   0.87603   0.04506   1.000
    C130    C    0.43915   0.88633   0.79283   1.000
    C131    C    0.93926   0.88477   0.79303   1.000
    C132    C    0.38373   0.82403   0.79470   1.000
    C133    C    0.88414   0.82220   0.79460   1.000
    C134    C    0.02410   0.49775   0.57750   1.000
    C135    C    0.52414   0.49773   0.57757   1.000
    C136    C    0.44499   0.51970   0.56530   1.000
    C137    C    0.94497   0.51973   0.56529   1.000
    C138    C    0.39741   0.46475   0.54054   1.000
    C139    C    0.89739   0.46477   0.54054   1.000
    C140    C    0.43109   0.39086   0.52838   1.000
    C141    C    0.93107   0.39087   0.52839   1.000
    C142    C    0.00994   0.37397   0.54381   1.000
    C143    C    0.50997   0.37395   0.54379   1.000
    C144    C    0.31354   0.38933   0.29155   1.000
    C145    C    0.81345   0.38934   0.29159   1.000
    C146    C    0.36941   0.32629   0.29383   1.000
    C147    C    0.86935   0.32632   0.29387   1.000
    C148    C    0.23161   0.00000   0.42081   1.000
    C149    C    0.73165   0.00000   0.42082   1.000
    C150    C    0.31085   0.02052   0.43392   1.000
    C151    C    0.81088   0.02055   0.43393   1.000
    C152    C    0.35663   0.96362   0.45907   1.000
    C153    C    0.85668   0.96366   0.45907   1.000
    C154    C    0.32099   0.89117   0.47084   1.000
    C155    C    0.82107   0.89119   0.47083   1.000
    C156    C    0.24199   0.87774   0.45490   1.000
    C157    C    0.74207   0.87774   0.45490   1.000
    C158    C    0.93901   0.88632   0.70900   1.000
    C159    C    0.38373   0.82429   0.70653   1.000
    C160    C    0.88400   0.82374   0.70641   1.000
    C161    C    0.47938   0.50647   0.07710   1.000
    C162    C    0.97906   0.50628   0.07716   1.000
    C163    C    0.05781   0.48289   0.06514   1.000
    C164    C    0.55811   0.48305   0.06510   1.000
    C165    C    0.10637   0.53691   0.04059   1.000
    C166    C    0.60661   0.53701   0.04044   1.000
    C167    C    0.07403   0.61133   0.02833   1.000
    C168    C    0.57426   0.61143   0.02818   1.000
    C169    C    0.49581   0.62987   0.04349   1.000
    C170    C    0.99554   0.62975   0.04359   1.000
    C171    C    0.19091   0.61046   0.79077   1.000
    C172    C    0.68986   0.60982   0.79066   1.000
    C173    C    0.13462   0.67305   0.79380   1.000
    C174    C    0.63373   0.67256   0.79370   1.000
    C175    C    0.27037   0.99928   0.92165   1.000
    C176    C    0.77082   0.99938   0.92130   1.000
    C177    C    0.19103   0.98049   0.93417   1.000
    C178    C    0.69144   0.98038   0.93360   1.000
    C179    C    0.14496   0.03735   0.95907   1.000
    C180    C    0.64523   0.03700   0.95866   1.000
    C181    C    0.18033   0.10981   0.97116   1.000
    C182    C    0.68048   0.10942   0.97106   1.000
    C183    C    0.25944   0.12337   0.95574   1.000
    C184    C    0.75969   0.12311   0.95584   1.000
    C185    C    0.06531   0.11519   0.20775   1.000
    C186    C    0.56530   0.11522   0.20771   1.000
    C187    C    0.11979   0.17826   0.20577   1.000
    C188    C    0.61978   0.17828   0.20574   1.000
    C189    C    0.10496   0.70592   0.75035   1.000
    C190    C    0.60440   0.70558   0.75014   1.000
    C191    C    0.14833   0.20955   0.24992   1.000
    C192    C    0.64831   0.20957   0.24989   1.000
    C193    C    0.39843   0.29461   0.24986   1.000
    C194    C    0.89837   0.29465   0.24989   1.000
    C195    C    0.35493   0.79315   0.75054   1.000
    C196    C    0.85538   0.79189   0.75023   1.000
    N197    N    0.55414   0.42233   0.93264   1.000
    N198    N    0.19783   0.92920   0.06945   1.000
    N199    N    0.69685   0.92973   0.06953   1.000
    N200    N    0.05621   0.42583   0.56810   1.000
    N201    N    0.55624   0.42581   0.56811   1.000
    N202    N    0.19756   0.93135   0.43000   1.000
    N203    N    0.69762   0.93134   0.43008   1.000
    N204    N    0.44865   0.57898   0.06772   1.000
    N205    N    0.94834   0.57880   0.06774   1.000
    N206    N    0.30421   0.06972   0.93123   1.000
    N207    N    0.80461   0.06972   0.93120   1.000
    N208    N    0.21799   0.58009   0.74831   1.000
    N209    N    0.71713   0.57950   0.74824   1.000
    N210    N    0.03868   0.08330   0.24969   1.000
    N211    N    0.53866   0.08333   0.24965   1.000
    N212    N    0.28613   0.42099   0.24948   1.000
    N213    N    0.78601   0.42097   0.24952   1.000
    N214    N    0.46613   0.91812   0.75095   1.000
    N215    N    0.96611   0.91720   0.75130   1.000
loop_
    _geom_bond_atom_site_label_1
    _geom_bond_atom_site_label_2
    _geom_bond_distance
    _geom_bond_site_symmetry_2
    _ccdc_geom_bond_type
    C168   C166      1.39774      .   S
    C168   C169      1.40356      .   S
    C167   C165      1.39770      .   S
    C167   C170      1.40357  1_455   S
    H51    C166      1.08873      .   S
    H50    C165      1.08871      .   S
    C127   C125      1.39852      .   S
    C127   C129      1.40495      .   S
    C126   C128      1.36978      .   S
    C126   C124      1.39837      .   S
    H26    C124      1.08881      .   S
    H27    C125      1.08886      .   S
    H52    C169      1.09113      .   S
    H53    C170      1.09120      .   S
    H28    C128      1.07053      .   S
    H29    C129      1.09111      .   S
    C128   N198      1.41525      .   S
    C166   C164      1.39518      .   S
    C165   C163      1.39501      .   S
    C125   C123      1.39639  1_565   S
    C124   C122      1.39475  1_565   S
    C169   N204      1.34284      .   S
    C170   N205      1.34275      .   S
    C129   N199      1.34241      .   S
    C164   C161      1.40383      .   S
    C163   C162      1.40412  1_455   S
    C122   C120      1.40518  1_545   S
    C123   C121      1.40470      .   S
    N204   C161      1.34185      .   S
    N205   C162      1.34231      .   S
    N198   C120      1.34187      .   S
    N199   C121      1.34063  1_565   S
    C161   H48       1.09295      .   S
    C162   H49       1.09219      .   S
    C120   H24       1.09211  1_565   S
    C121   H25       1.09309      .   S
    H22    C116      1.09142      .   S
    H23    C117      1.09142      .   S
    H63    C186      1.09150      .   S
    H62    C185      1.09156      .   S
    C118   C116      1.40390      .   S
    C118   C193      1.39689      .   S
    C119   C117      1.40387      .   S
    C119   C194      1.39672      .   S
    C188   C186      1.40375      .   S
    C188   C192      1.39685      .   S
    C187   C185      1.40375      .   S
    C187   C191      1.39695      .   S
    C116   N212      1.34165      .   S
    C117   N213      1.34181      .   S
    C186   N211      1.34186      .   S
    C185   N210      1.34181      .   S
    N212   C144      1.34173      .   S
    N213   C145      1.34177      .   S
    N211   C98       1.34191      .   S
    N210   C97       1.34202      .   S
    C193   H68       1.08842      .   S
    C193   C146      1.39650      .   S
    C194   H69       1.08841      .   S
    C194   C147      1.39664      .   S
    C192   H67       1.08837      .   S
    C192   C100      1.39676      .   S
    C191   H66       1.08838      .   S
    C191   C99       1.39648      .   S
    C144   C146      1.40416      .   S
    C144   H38       1.09143      .   S
    C145   C147      1.40420      .   S
    C145   H39       1.08222      .   S
    C98    C100      1.40405      .   S
    C98    H15       1.09153      .   S
    C97    C99       1.40402      .   S
    C97    H14       1.09142      .   S
    H40    C148      1.11168      .   S
    H41    C149      1.11177      .   S
    H0     C72       1.09214      .   S
    H1     C73       1.09228      .   S
    C148   N202      1.31599  1_545   S
    C148   C150      1.41175      .   S
    C149   N203      1.31632  1_545   S
    C149   C151      1.41174      .   S
    C72    N101      1.34222      .   S
    C72    C75       1.39926      .   S
    C73    N102      1.34216      .   S
    C73    C74       1.40407  1_655   S
    N202   C156      1.34359      .   S
    N203   C157      1.34262      .   S
    N101   C80       1.33878      .   S
    N102   C81       1.34280      .   S
    C150   C152      1.39627  1_545   S
    C151   C153      1.39629  1_545   S
    C75    C77       1.40616      .   S
    C74    C76       1.39465      .   S
    C157   H45       1.09117      .   S
    C157   C155      1.40412      .   S
    C156   H44       1.09129      .   S
    C156   C154      1.40422      .   S
    C80    H4        1.09286      .   S
    C80    C79       1.40643      .   S
    C81    H5        1.09111      .   S
    C81    C78       1.40388  1_655   S
    C152   H42       1.08890      .   S
    C152   C154      1.39865      .   S
    C153   H43       1.08886      .   S
    C153   C155      1.39861      .   S
    C76    H2        1.08933      .   S
    C76    C78       1.39817      .   S
    C77    H3        1.08872      .   S
    C77    C79       1.39770      .   S
    C140   C138      1.39778      .   S
    C140   C143      1.40376      .   S
    C141   C139      1.39779      .   S
    C141   C142      1.40371  1_655   S
    C94    C92       1.39857      .   S
    C94    C96       1.40392      .   S
    C93    C91       1.39865      .   S
    C93    C95       1.40390      .   S
    H35    C139      1.08875      .   S
    H34    C138      1.08875      .   S
    H11    C92       1.08883      .   S
    H10    C91       1.08886      .   S
    H37    C143      1.09116      .   S
    H36    C142      1.09120      .   S
    H12    C95       1.09118      .   S
    H13    C96       1.09119      .   S
    C139   C137      1.39540      .   S
    C138   C136      1.39543      .   S
    C92    C90       1.39591  1_545   S
    C91    C89       1.39587  1_545   S
    C143   N201      1.34278      .   S
    C142   N200      1.34237      .   S
    C95    N103      1.34264      .   S
    C96    N104      1.34253      .   S
    C137   C134      1.40360  1_655   S
    C136   C135      1.40420      .   S
    C90    C88       1.40486  1_565   S
    C89    C87       1.40487  1_565   S
    N200   C134      1.34185      .   S
    N201   C135      1.34211      .   S
    N103   C87       1.34169      .   S
    N104   C88       1.34170      .   S
    C134   H32       1.09323      .   S
    C135   H33       1.09216      .   S
    C88    H9        1.09209  1_545   S
    C87    H8        1.09213  1_545   S
    H7     C84       1.09144      .   S
    H6     C83       1.08961      .   S
    H46    C82       1.09133      .   S
    H47    C158      1.09038      .   S
    C86    C84       1.40394      .   S
    C86    C190      1.39711      .   S
    C85    C83       1.40402      .   S
    C85    C189      1.39736      .   S
    C160   C158      1.40384      .   S
    C160   C196      1.39663      .   S
    C159   C82       1.40391      .   S
    C159   C195      1.39765      .   S
    C84    N209      1.34142      .   S
    C83    N208      1.34305      .   S
    C82    N214      1.34181      .   S
    C158   N215      1.34289      .   S
    N209   C172      1.34157      .   S
    N208   C171      1.34171      .   S
    H71    C196      1.08842      .   S
    C190   H65       1.08850      .   S
    C190   C174      1.39621      .   S
    C196   C133      1.39721      .   S
    C189   H64       1.08853      .   S
    C189   C173      1.39456      .   S
    H70    C195      1.08853      .   S
    C195   C132      1.39614      .   S
    N214   C130      1.34169      .   S
    N215   C131      1.34195      .   S
    C172   C174      1.40446      .   S
    C172   H55       1.09120      .   S
    C171   C173      1.40433      .   S
    C171   H54       1.09130      .   S
    C130   C132      1.40419      .   S
    C130   H30       1.09141      .   S
    C131   C133      1.40389      .   S
    C131   H31       1.09157      .   S
    H57    C176      1.09229      .   S
    H56    C175      1.09317      .   S
    H17    C107      1.09281      .   S
    H16    C106      1.09224      .   S
    C176   N207      1.34181  1_565   S
    C176   C178      1.40417      .   S
    C175   N206      1.34205  1_565   S
    C175   C177      1.40424      .   S
    C107   N197      1.34225      .   S
    C107   C108      1.40419      .   S
    C106   N105      1.34224      .   S
    C106   C109      1.40425  1_455   S
    N207   C184      1.34300      .   S
    N206   C183      1.34264      .   S
    N197   C115      1.34252      .   S
    N105   C114      1.34253      .   S
    C178   C180      1.39671  1_565   S
    C177   C179      1.39601  1_565   S
    C108   C110      1.39588      .   S
    C109   C111      1.39575      .   S
    C183   H60       1.09119      .   S
    C183   C181      1.40439      .   S
    C184   H61       1.09114      .   S
    C184   C182      1.40453      .   S
    C115   H21       1.09118      .   S
    C115   C112      1.40399      .   S
    C114   H20       1.09113      .   S
    C114   C113      1.40392  1_455   S
    C180   H59       1.08886      .   S
    C180   C182      1.39815      .   S
    C179   H58       1.08871      .   S
    C179   C181      1.39746      .   S
    C110   H18       1.08888      .   S
    C110   C112      1.39790      .   S
    C111   H19       1.08888      .   S
    C111   C113      1.39809      .   S
