# CIF file generated by openbabel 2.4.90, see http://openbabel.sf.net
data_I
_chemical_name_common ''
_cell_length_a 16.645
_cell_length_b 16.816
_cell_length_c 27.26
_cell_angle_alpha 90.069
_cell_angle_beta 90.16
_cell_angle_gamma 89.401
_space_group_name_H-M_alt 'P 1'
_space_group_name_Hall 'P 1'
loop_
    _symmetry_equiv_pos_as_xyz
    x,y,z
loop_
    _atom_site_label
    _atom_site_type_symbol
    _atom_site_fract_x
    _atom_site_fract_y
    _atom_site_fract_z
    _atom_site_occupancy
    C0      C    0.11754   0.66947   0.50336   1.000
    C1      C    0.61744   0.66951   0.50326   1.000
    C2      C    0.86388   0.83189   0.50230   1.000
    C3      C    0.34286   0.10131   0.42362   1.000
    C4      C    0.84288   0.10133   0.42363   1.000
    C5      C    0.08960   0.40225   0.42403   1.000
    C6      C    0.58956   0.40224   0.42401   1.000
    C7      C    0.10679   0.71156   0.65855   1.000
    C8      C    0.60668   0.71147   0.65842   1.000
    C9      C    0.13996   0.17177   0.49775   1.000
    C10     C    0.63994   0.17177   0.49770   1.000
    C11     C    0.16105   0.90250   0.57644   1.000
    C12     C    0.66100   0.90249   0.57642   1.000
    C13     C    0.14655   0.21211   0.34167   1.000
    C14     C    0.64653   0.21211   0.34165   1.000
    C15     C    0.38312   0.33129   0.00274   1.000
    C16     C    0.88306   0.33099   0.00279   1.000
    C17     C    0.41369   0.59923   0.92501   1.000
    C18     C    0.91406   0.59887   0.92505   1.000
    C19     C    0.39612   0.29156   0.15809   1.000
    C20     C    0.89602   0.29152   0.15815   1.000
    C21     C    0.36597   0.83098   0.99857   1.000
    C22     C    0.86389   0.82986   0.99869   1.000
    C23     C    0.34206   0.10002   0.07724   1.000
    C24     C    0.84238   0.09943   0.07723   1.000
    C25     C    0.35707   0.79078   0.84250   1.000
    C26     C    0.85701   0.78808   0.84195   1.000
    C27     C    0.38592   0.33406   0.49701   1.000
    C28     C    0.88591   0.33406   0.49700   1.000
    C29     C    0.41407   0.60137   0.57606   1.000
    C30     C    0.91405   0.60140   0.57604   1.000
    C31     C    0.39618   0.29284   0.34168   1.000
    C32     C    0.89616   0.29287   0.34171   1.000
    C33     C    0.36379   0.83188   0.50232   1.000
    C34     C    0.35699   0.79101   0.65867   1.000
    C35     C    0.85710   0.79089   0.65849   1.000
    C36     C    0.12035   0.66684   0.99701   1.000
    C37     C    0.62047   0.66688   0.99671   1.000
    C38     C    0.08730   0.40072   0.07586   1.000
    C39     C    0.58752   0.40086   0.07584   1.000
    C40     C    0.10884   0.70477   0.84238   1.000
    C41     C    0.60785   0.70449   0.84211   1.000
    C42     C    0.13699   0.16888   0.00245   1.000
    C43     C    0.63706   0.16851   0.00237   1.000
    C44     C    0.15850   0.90002   0.92362   1.000
    C45     C    0.65914   0.89993   0.92252   1.000
    C46     C    0.14643   0.21209   0.15824   1.000
    C47     C    0.64650   0.21210   0.15823   1.000
    O48     O    0.04835   0.76056   0.65819   1.000
    O49     O    0.54833   0.76060   0.65811   1.000
    O50     O    0.14217   0.69066   0.61842   1.000
    O51     O    0.64209   0.69064   0.61829   1.000
    O52     O    0.08357   0.73571   0.51510   1.000
    O53     O    0.58349   0.73574   0.51508   1.000
    O54     O    0.18726   0.64970   0.51830   1.000
    O55     O    0.68721   0.64975   0.51813   1.000
    O56     O    0.03821   0.34718   0.41898   1.000
    O57     O    0.53820   0.34716   0.41897   1.000
    O58     O    0.16529   0.39143   0.42121   1.000
    O59     O    0.66526   0.39144   0.42121   1.000
    O60     O    0.20464   0.26035   0.34230   1.000
    O61     O    0.70463   0.26034   0.34228   1.000
    O62     O    0.11113   0.19089   0.38154   1.000
    O63     O    0.61113   0.19088   0.38152   1.000
    O64     O    0.17659   0.23544   0.48561   1.000
    O65     O    0.67657   0.23544   0.48561   1.000
    O66     O    0.06908   0.15633   0.48346   1.000
    O67     O    0.56906   0.15634   0.48345   1.000
    O68     O    0.21220   0.84669   0.58319   1.000
    O69     O    0.71217   0.84669   0.58316   1.000
    O70     O    0.08527   0.89267   0.57722   1.000
    O71     O    0.58522   0.89265   0.57721   1.000
    O72     O    0.45492   0.24294   0.15750   1.000
    O73     O    0.95478   0.24283   0.15762   1.000
    O74     O    0.36017   0.31279   0.11815   1.000
    O75     O    0.86014   0.31274   0.11819   1.000
    O76     O    0.41706   0.26528   0.01508   1.000
    O77     O    0.91688   0.26491   0.01516   1.000
    O78     O    0.31293   0.35071   0.01680   1.000
    O79     O    0.81291   0.35058   0.01683   1.000
    O80     O    0.46566   0.65383   0.92077   1.000
    O81     O    0.96622   0.65334   0.92094   1.000
    O82     O    0.33819   0.61089   0.92162   1.000
    O83     O    0.83863   0.61074   0.92155   1.000
    O84     O    0.29887   0.74281   0.84337   1.000
    O85     O    0.79894   0.73994   0.84209   1.000
    O86     O    0.39298   0.81242   0.88232   1.000
    O87     O    0.89206   0.80911   0.88224   1.000
    O88     O    0.32974   0.76748   0.98544   1.000
    O89     O    0.82645   0.76712   0.98564   1.000
    O90     O    0.43726   0.84653   0.98533   1.000
    O91     O    0.93552   0.84397   0.98545   1.000
    O92     O    0.29076   0.15587   0.08320   1.000
    O93     O    0.79154   0.15577   0.08326   1.000
    O94     O    0.41779   0.10995   0.07870   1.000
    O95     O    0.91822   0.10860   0.07881   1.000
    O96     O    0.45421   0.24332   0.34272   1.000
    O97     O    0.95420   0.24337   0.34275   1.000
    O98     O    0.36073   0.31569   0.38137   1.000
    O99     O    0.86070   0.31571   0.38140   1.000
    O100    O    0.41988   0.26802   0.48470   1.000
    O101    O    0.91989   0.26803   0.48400   1.000
    O102    O    0.31585   0.35363   0.48263   1.000
    O103    O    0.81584   0.35362   0.48264   1.000
    O104    O    0.46548   0.65643   0.58100   1.000
    O105    O    0.96547   0.65644   0.58108   1.000
    O106    O    0.33840   0.61224   0.57885   1.000
    O107    O    0.83837   0.61230   0.57870   1.000
    O108    O    0.29873   0.74296   0.65796   1.000
    O109    O    0.79877   0.74292   0.65772   1.000
    O110    O    0.39231   0.81239   0.61877   1.000
    O111    O    0.89240   0.81248   0.61865   1.000
    O112    O    0.32698   0.76822   0.51433   1.000
    O113    O    0.82705   0.76823   0.51429   1.000
    O114    O    0.43463   0.84714   0.51674   1.000
    O115    O    0.93472   0.84712   0.51672   1.000
    O116    O    0.29184   0.15725   0.41679   1.000
    O117    O    0.79185   0.15727   0.41600   1.000
    O118    O    0.41868   0.11093   0.42289   1.000
    O119    O    0.91869   0.11095   0.42288   1.000
    O120    O    0.05058   0.75396   0.84449   1.000
    O121    O    0.54939   0.75344   0.84412   1.000
    O122    O    0.14607   0.68077   0.88120   1.000
    O123    O    0.64535   0.68095   0.88097   1.000
    O124    O    0.08734   0.73286   0.98362   1.000
    O125    O    0.58741   0.73298   0.98348   1.000
    O126    O    0.19057   0.64649   0.98362   1.000
    O127    O    0.69050   0.64636   0.98311   1.000
    O128    O    0.03489   0.34663   0.08055   1.000
    O129    O    0.53500   0.34687   0.08060   1.000
    O130    O    0.16282   0.38865   0.07891   1.000
    O131    O    0.66301   0.38861   0.07885   1.000
    O132    O    0.20467   0.26012   0.15793   1.000
    O133    O    0.70475   0.26012   0.15795   1.000
    O134    O    0.11111   0.19115   0.11808   1.000
    O135    O    0.61128   0.19116   0.11802   1.000
    O136    O    0.17331   0.23283   0.01450   1.000
    O137    O    0.67338   0.23248   0.01453   1.000
    O138    O    0.06623   0.15314   0.01663   1.000
    O139    O    0.56627   0.15289   0.01650   1.000
    O140    O    0.20872   0.84342   0.91677   1.000
    O141    O    0.70948   0.84354   0.91531   1.000
    O142    O    0.08255   0.89130   0.92277   1.000
    O143    O    0.58321   0.89107   0.92156   1.000
loop_
    _geom_bond_atom_site_label_1
    _geom_bond_atom_site_label_2
    _geom_bond_distance
    _geom_bond_site_symmetry_2
    _ccdc_geom_bond_type
    C43    O137      1.28222      .   S
    C43    O139      1.27083      .   S
    C42    O136      1.28116      .   S
    C42    O138      1.27121      .   S
    C15    O76       1.28503      .   S
    C15    O78       1.26990      .   S
    C16    O77       1.28533      .   S
    C16    O79       1.26984      .   S
    C39    O131      1.27357      .   S
    C39    O129      1.27387      .   S
    C38    O130      1.27373      .   S
    C38    O128      1.27364      .   S
    C24    O95       1.27392      .   S
    C24    O93       1.27439      .   S
    C23    O94       1.27375      .   S
    C23    O92       1.27335      .   S
    O135   C47       1.29188      .   S
    O134   C46       1.29153      .   S
    O74    C19       1.28989      .   S
    O75    C20       1.28970      .   S
    O72    C19       1.26888      .   S
    O73    C20       1.26905      .   S
    O132   C46       1.26837      .   S
    O133   C47       1.26835      .   S
    C14    O61       1.26872      .   S
    C14    O63       1.29032      .   S
    C13    O60       1.26872      .   S
    C13    O62       1.29033      .   S
    C31    O96       1.26894      .   S
    C31    O98       1.29013      .   S
    C32    O97       1.26894      .   S
    C32    O99       1.29008      .   S
    O117   C4        1.27759      .   S
    O116   C3        1.27426      .   S
    O57    C6        1.27414      .   S
    O56    C5        1.27418      .   S
    O59    C6        1.27357      .   S
    O58    C5        1.27359      .   S
    O119   C4        1.27416      .   S
    O118   C3        1.27416      .   S
    O102   C27       1.26955      .   S
    O103   C28       1.26940      .   S
    O67    C10       1.27031      .   S
    O66    C9        1.27068      .   S
    O101   C28       1.29055      .   S
    O100   C27       1.28555      .   S
    O64    C9        1.28186      .   S
    O65    C10       1.28154      .   S
    C2     O113      1.28222      .   S
    C2     O115      1.27041      .   S
    C33    O112      1.28224      .   S
    C33    O114      1.27050      .   S
    C1     O53       1.28462      .   S
    C1     O55       1.27012      .   S
    C0     O52       1.28444      .   S
    C0     O54       1.26999      .   S
    C30    O107      1.27322      .   S
    C30    O105      1.27419      .   S
    C29    O106      1.27336      .   S
    C29    O104      1.27401      .   S
    C12    O71       1.27418      .   S
    C12    O69       1.27367      .   S
    C11    O70       1.27415      .   S
    C11    O68       1.27365      .   S
    O51    C8        1.29048      .   S
    O50    C7        1.29051      .   S
    O111   C35       1.29048      .   S
    O110   C34       1.29105      .   S
    O109   C35       1.26887      .   S
    O108   C34       1.26887      .   S
    O49    C8        1.26839      .   S
    O48    C7        1.26832      .   S
    C26    O85       1.26721      .   S
    C26    O87       1.29286      .   S
    C41    O121      1.26921      .   S
    C41    O123      1.28859      .   S
    C40    O120      1.26942      .   S
    C40    O122      1.28800      .   S
    C25    O84       1.26728      .   S
    C25    O86       1.29151      .   S
    O141   C45       1.27425      .   S
    O140   C44       1.27411      .   S
    O80    C17       1.27366      .   S
    O81    C18       1.27387      .   S
    O83    C18       1.27258      .   S
    O143   C45       1.27442      .   S
    O82    C17       1.27301      .   S
    O142   C44       1.27436      .   S
    O127   C37       1.26845      .   S
    O125   C37       1.28661      .   S
    O126   C36       1.26898      .   S
    O124   C36       1.28636      .   S
    O90    C21       1.27121      .   S
    O88    C21       1.28193      .   S
    O91    C22       1.27155      .   S
    O89    C22       1.28037      .   S
