# CIF file generated by openbabel 2.4.90, see http://openbabel.sf.net
data_I
_chemical_name_common ''
_cell_length_a 16.645
_cell_length_b 16.816
_cell_length_c 27.26
_cell_angle_alpha 90.069
_cell_angle_beta 90.16
_cell_angle_gamma 89.401
_space_group_name_H-M_alt 'P 1'
_space_group_name_Hall 'P 1'
loop_
    _symmetry_equiv_pos_as_xyz
    x,y,z
loop_
    _atom_site_label
    _atom_site_type_symbol
    _atom_site_fract_x
    _atom_site_fract_y
    _atom_site_fract_z
    _atom_site_occupancy
    C0      C    0.11754   0.66947   0.50336   1.000
    C1      C    0.61744   0.66951   0.50326   1.000
    C2      C    0.86388   0.83189   0.50230   1.000
    C3      C    0.34286   0.10131   0.42362   1.000
    C4      C    0.84288   0.10133   0.42363   1.000
    C5      C    0.08960   0.40225   0.42403   1.000
    C6      C    0.58956   0.40224   0.42401   1.000
    C7      C    0.10679   0.71156   0.65855   1.000
    C8      C    0.60668   0.71147   0.65842   1.000
    C9      C    0.13996   0.17177   0.49775   1.000
    C10     C    0.63994   0.17177   0.49770   1.000
    C11     C    0.16105   0.90250   0.57644   1.000
    C12     C    0.66100   0.90249   0.57642   1.000
    C13     C    0.14655   0.21211   0.34167   1.000
    C14     C    0.64653   0.21211   0.34165   1.000
    C15     C    0.38312   0.33129   0.00274   1.000
    C16     C    0.88306   0.33099   0.00279   1.000
    C17     C    0.41369   0.59923   0.92501   1.000
    C18     C    0.91406   0.59887   0.92505   1.000
    C19     C    0.39612   0.29156   0.15809   1.000
    C20     C    0.89602   0.29152   0.15815   1.000
    C21     C    0.36597   0.83098   0.99857   1.000
    C22     C    0.86389   0.82986   0.99869   1.000
    C23     C    0.34206   0.10002   0.07724   1.000
    C24     C    0.84238   0.09943   0.07723   1.000
    C25     C    0.35707   0.79078   0.84250   1.000
    C26     C    0.85701   0.78808   0.84195   1.000
    C27     C    0.38592   0.33406   0.49701   1.000
    C28     C    0.88591   0.33406   0.49700   1.000
    C29     C    0.41407   0.60137   0.57606   1.000
    C30     C    0.91405   0.60140   0.57604   1.000
    C31     C    0.39618   0.29284   0.34168   1.000
    C32     C    0.89616   0.29287   0.34171   1.000
    C33     C    0.36379   0.83188   0.50232   1.000
    C34     C    0.35699   0.79101   0.65867   1.000
    C35     C    0.85710   0.79089   0.65849   1.000
    C36     C    0.12035   0.66684   0.99701   1.000
    C37     C    0.62047   0.66688   0.99671   1.000
    C38     C    0.08730   0.40072   0.07586   1.000
    C39     C    0.58752   0.40086   0.07584   1.000
    C40     C    0.10884   0.70477   0.84238   1.000
    C41     C    0.60785   0.70449   0.84211   1.000
    C42     C    0.13699   0.16888   0.00245   1.000
    C43     C    0.63706   0.16851   0.00237   1.000
    C44     C    0.15850   0.90002   0.92362   1.000
    C45     C    0.65914   0.89993   0.92252   1.000
    C46     C    0.14643   0.21209   0.15824   1.000
    C47     C    0.64650   0.21210   0.15823   1.000
