# CIF file generated by openbabel 2.4.90, see http://openbabel.sf.net
data_I
_chemical_name_common ''
_cell_length_a 16.645
_cell_length_b 16.816
_cell_length_c 27.26
_cell_angle_alpha 90.069
_cell_angle_beta 90.16
_cell_angle_gamma 89.401
_space_group_name_H-M_alt 'P 1'
_space_group_name_Hall 'P 1'
loop_
    _symmetry_equiv_pos_as_xyz
    x,y,z
loop_
    _atom_site_label
    _atom_site_type_symbol
    _atom_site_fract_x
    _atom_site_fract_y
    _atom_site_fract_z
    _atom_site_occupancy
    Zr0     Zr   0.50759   0.78277   0.57661   1.000
    Zr1     Zr   0.00000   0.78276   0.57662   1.000
    Zr2     Zr   0.24731   0.28356   0.42321   1.000
    Zr3     Zr   0.74728   0.28357   0.42322   1.000
    Zr4     Zr   0.99477   0.21940   0.07638   1.000
    Zr5     Zr   0.49506   0.21973   0.07624   1.000
    Zr6     Zr   0.25624   0.71836   0.92399   1.000
    Zr7     Zr   0.75617   0.71795   0.92312   1.000
    Zr8     Zr   0.99641   0.22078   0.42374   1.000
    Zr9     Zr   0.49639   0.22076   0.42372   1.000
    Zr10    Zr   0.25665   0.72046   0.57694   1.000
    Zr11    Zr   0.75653   0.72044   0.57678   1.000
    Zr12    Zr   0.50666   0.78064   0.92446   1.000
    Zr13    Zr   0.00000   0.78026   0.92464   1.000
    Zr14    Zr   0.24532   0.28146   0.07664   1.000
    Zr15    Zr   0.74534   0.28114   0.07663   1.000
    N16     N    0.52580   0.55806   0.44614   1.000
    N17     N    0.97777   0.44551   0.55384   1.000
    N18     N    0.47779   0.44549   0.55384   1.000
    N19     N    0.02638   0.55765   0.05366   1.000
    N20     N    0.77618   0.94756   0.44505   1.000
    N21     N    0.34135   0.35792   0.24967   1.000
    N22     N    0.02591   0.55808   0.44629   1.000
    N23     N    0.84125   0.35792   0.24966   1.000
    N24     N    0.27651   0.94604   0.05468   1.000
    N25     N    0.97594   0.44211   0.94676   1.000
    N26     N    0.72767   0.05607   0.55502   1.000
    N27     N    0.77567   0.94598   0.05527   1.000
    N28     N    0.41144   0.85577   0.75074   1.000
    N29     N    0.47584   0.44257   0.94669   1.000
    N30     N    0.27612   0.94755   0.44504   1.000
    N31     N    0.22771   0.05608   0.55502   1.000
    N32     N    0.52665   0.55779   0.05358   1.000
    N33     N    0.59255   0.14632   0.24977   1.000
    N34     N    0.91164   0.85470   0.75077   1.000
    N35     N    0.66173   0.64246   0.74919   1.000
    N36     N    0.09257   0.14630   0.24980   1.000
    N37     N    0.72586   0.05311   0.94538   1.000
    N38     N    0.16242   0.64292   0.74931   1.000
    N39     N    0.22555   0.05328   0.94560   1.000
    C40     C    0.14993   0.87825   0.92105   1.000
    O41     O    0.17504   0.93751   0.92915   1.000
    O42     O    0.09560   0.85701   0.92238   1.000
    O43     O    0.19120   0.82957   0.92072   1.000
    C44     C    0.37766   0.81499   0.98978   1.000
    O45     O    0.42481   0.81429   0.97234   1.000
    O46     O    0.34397   0.85910   0.01211   1.000
    O47     O    0.33532   0.77896   0.97225   1.000
    C48     C    0.40585   0.62131   0.92247   1.000
    O49     O    0.35153   0.64297   0.92264   1.000
    O50     O    0.44600   0.66927   0.92254   1.000
    O51     O    0.42906   0.56085   0.93047   1.000
    C52     C    0.63279   0.68207   0.98777   1.000
    O53     O    0.59740   0.64027   0.01039   1.000
    O54     O    0.67806   0.68211   0.97044   1.000
    O55     O    0.58991   0.71944   0.97087   1.000
    C56     C    0.84934   0.77904   0.85543   1.000
    O57     O    0.87022   0.80448   0.81997   1.000
    O58     O    0.89768   0.78686   0.87943   1.000
    C59     C    0.90630   0.62098   0.92251   1.000
    O60     O    0.92938   0.56047   0.93052   1.000
    O61     O    0.85185   0.64267   0.92242   1.000
    O62     O    0.94471   0.66889   0.92265   1.000
    C63     C    0.65061   0.87818   0.91980   1.000
    O64     O    0.59777   0.85702   0.92140   1.000
    O65     O    0.69172   0.82946   0.91951   1.000
    O66     O    0.67560   0.93741   0.92826   1.000
    C67     C    0.13275   0.68206   0.98808   1.000
    O68     O    0.17808   0.68225   0.97094   1.000
    O69     O    0.08821   0.71931   0.97111   1.000
    O70     O    0.09727   0.64022   0.01063   1.000
    C71     C    0.87529   0.81365   0.98993   1.000
    O72     O    0.92153   0.81288   0.97249   1.000
    O73     O    0.84216   0.85822   0.01234   1.000
    O74     O    0.83330   0.77809   0.97215   1.000
    C75     C    0.10183   0.71317   0.85602   1.000
    O76     O    0.15149   0.70637   0.87931   1.000
    O77     O    0.06356   0.74014   0.87029   1.000
    O78     O    0.12195   0.68954   0.81986   1.000
    C79     C    0.34964   0.78200   0.85606   1.000
    O80     O    0.31360   0.75630   0.86987   1.000
    O81     O    0.39973   0.78927   0.87973   1.000
    O82     O    0.37028   0.80680   0.82037   1.000
    C83     C    0.60086   0.71296   0.85573   1.000
    O84     O    0.65081   0.70620   0.87889   1.000
    O85     O    0.56445   0.74000   0.87001   1.000
    O86     O    0.62106   0.68922   0.81964   1.000
    C87     C    0.09910   0.72093   0.64505   1.000
    O88     O    0.12025   0.69468   0.68040   1.000
    O89     O    0.06164   0.74630   0.63123   1.000
    O90     O    0.14926   0.71324   0.62137   1.000
    C91     C    0.12946   0.68496   0.51225   1.000
    O92     O    0.09497   0.64227   0.48960   1.000
    O93     O    0.08562   0.72210   0.52906   1.000
    O94     O    0.17571   0.68502   0.52994   1.000
    C95     C    0.90597   0.62338   0.57861   1.000
    O96     O    0.85171   0.64487   0.57817   1.000
    O97     O    0.92980   0.56321   0.57043   1.000
    O98     O    0.94435   0.67149   0.57873   1.000
    C99     C    0.37513   0.81575   0.51113   1.000
    O100    O    0.34219   0.86014   0.48847   1.000
    O101    O    0.33347   0.78004   0.52838   1.000
    O102    O    0.42312   0.81535   0.52890   1.000
    C103    C    0.87522   0.81575   0.51110   1.000
    O104    O    0.83350   0.78004   0.52832   1.000
    O105    O    0.92129   0.81535   0.52889   1.000
    O106    O    0.84227   0.86015   0.48846   1.000
    C107    C    0.65280   0.88061   0.57893   1.000
    O108    O    0.67756   0.94005   0.57105   1.000
    O109    O    0.59960   0.85916   0.57792   1.000
    O110    O    0.69357   0.83209   0.57945   1.000
    C111    C    0.62938   0.68500   0.51216   1.000
    O112    O    0.58746   0.72213   0.52900   1.000
    O113    O    0.67563   0.68505   0.52981   1.000
    O114    O    0.59488   0.64229   0.48949   1.000
    C115    C    0.84942   0.78209   0.64495   1.000
    O116    O    0.89781   0.78986   0.62129   1.000
    O117    O    0.87026   0.80655   0.68078   1.000
    C118    C    0.59903   0.72090   0.64494   1.000
    O119    O    0.64917   0.71322   0.62124   1.000
    O120    O    0.61998   0.69450   0.68027   1.000
    C121    C    0.15284   0.88062   0.57895   1.000
    O122    O    0.17760   0.94005   0.57106   1.000
    O123    O    0.19364   0.83210   0.57951   1.000
    O124    O    0.09774   0.85917   0.57794   1.000
    C125    C    0.40598   0.62335   0.57864   1.000
    O126    O    0.35175   0.64485   0.57827   1.000
    O127    O    0.44626   0.67147   0.57872   1.000
    O128    O    0.42982   0.56318   0.57045   1.000
    C129    C    0.34934   0.78212   0.64513   1.000
    O130    O    0.39964   0.78985   0.62141   1.000
    O131    O    0.37012   0.80691   0.68090   1.000
    C132    C    0.40371   0.28395   0.35526   1.000
    O133    O    0.38289   0.30885   0.31948   1.000
    O134    O    0.35386   0.29179   0.37877   1.000
    C135    C    0.65410   0.22111   0.35515   1.000
    O136    O    0.63349   0.19594   0.31946   1.000
    O137    O    0.60393   0.21347   0.37889   1.000
    C138    C    0.87388   0.31857   0.48788   1.000
    O139    O    0.91601   0.28149   0.47088   1.000
    O140    O    0.90850   0.36128   0.51057   1.000
    O141    O    0.82772   0.31858   0.47041   1.000
    C142    C    0.35113   0.12316   0.42110   1.000
    O143    O    0.31035   0.17178   0.42055   1.000
    O144    O    0.40433   0.14450   0.42220   1.000
    O145    O    0.32631   0.06370   0.42900   1.000
    C146    C    0.90369   0.28398   0.35529   1.000
    O147    O    0.88284   0.30887   0.31951   1.000
    O148    O    0.85384   0.29181   0.37880   1.000
    C149    C    0.12854   0.18785   0.48894   1.000
    O150    O    0.16155   0.14349   0.51160   1.000
    O151    O    0.17025   0.22367   0.47168   1.000
    O152    O    0.08064   0.18820   0.47127   1.000
    C153    C    0.59767   0.38028   0.42140   1.000
    O154    O    0.65197   0.35889   0.42181   1.000
    O155    O    0.55748   0.33212   0.42137   1.000
    O156    O    0.57381   0.44042   0.42948   1.000
    C157    C    0.15410   0.22112   0.35517   1.000
    O158    O    0.10394   0.21348   0.37891   1.000
    O159    O    0.13350   0.19594   0.31949   1.000
    C160    C    0.85114   0.12318   0.42084   1.000
    O161    O    0.81036   0.17180   0.42022   1.000
    O162    O    0.82634   0.06372   0.42888   1.000
    O163    O    0.90435   0.14452   0.42207   1.000
    C164    C    0.09770   0.38028   0.42141   1.000
    O165    O    0.15200   0.35889   0.42181   1.000
    O166    O    0.07386   0.44043   0.42963   1.000
    O167    O    0.05751   0.33213   0.42138   1.000
    C168    C    0.62852   0.18785   0.48892   1.000
    O169    O    0.58062   0.18820   0.47125   1.000
    O170    O    0.67022   0.22368   0.47167   1.000
    O171    O    0.66152   0.14349   0.51158   1.000
    C172    C    0.37388   0.31857   0.48811   1.000
    O173    O    0.40852   0.36127   0.51069   1.000
    O174    O    0.41601   0.28148   0.47116   1.000
    O175    O    0.32773   0.31858   0.47052   1.000
    C176    C    0.90365   0.28236   0.14465   1.000
    O177    O    0.88279   0.30781   0.18023   1.000
    O178    O    0.85320   0.28965   0.12103   1.000
    C179    C    0.87095   0.31549   0.01159   1.000
    O180    O    0.91339   0.27882   0.02868   1.000
    O181    O    0.90592   0.35811   0.98930   1.000
    O182    O    0.82504   0.31568   0.02916   1.000
    C183    C    0.62557   0.18462   0.01113   1.000
    O184    O    0.66747   0.22072   0.02836   1.000
    O185    O    0.57812   0.18547   0.02875   1.000
    O186    O    0.65895   0.14033   0.98859   1.000
    C187    C    0.37104   0.31576   0.01154   1.000
    O188    O    0.32508   0.31592   0.02913   1.000
    O189    O    0.40594   0.35844   0.98925   1.000
    O190    O    0.41355   0.27913   0.02860   1.000
    C191    C    0.59518   0.37878   0.07843   1.000
    O192    O    0.64968   0.35683   0.07809   1.000
    O193    O    0.57246   0.43932   0.07023   1.000
    O194    O    0.55510   0.33104   0.07843   1.000
    C195    C    0.15407   0.22112   0.14475   1.000
    O196    O    0.13346   0.19593   0.18033   1.000
    O197    O    0.10350   0.21320   0.12099   1.000
    C198    C    0.85071   0.12127   0.07977   1.000
    O199    O    0.90360   0.14263   0.07868   1.000
    O200    O    0.80958   0.16986   0.07986   1.000
    O201    O    0.82586   0.06190   0.07170   1.000
    C202    C    0.35020   0.12194   0.07971   1.000
    O203    O    0.40331   0.14339   0.07859   1.000
    O204    O    0.30912   0.17030   0.07982   1.000
    O205    O    0.32581   0.06236   0.07152   1.000
    C206    C    0.12551   0.18495   0.01119   1.000
    O207    O    0.15881   0.14063   0.98870   1.000
    O208    O    0.07800   0.18561   0.02885   1.000
    O209    O    0.16741   0.22105   0.02838   1.000
    C210    C    0.40374   0.28243   0.14458   1.000
    O211    O    0.35324   0.28978   0.12099   1.000
    O212    O    0.38288   0.30785   0.18018   1.000
    C213    C    0.65417   0.22112   0.14473   1.000
    O214    O    0.63351   0.19594   0.18030   1.000
    O215    O    0.60367   0.21328   0.12093   1.000
    C216    C    0.09500   0.37867   0.07844   1.000
    O217    O    0.07224   0.43920   0.07026   1.000
    O218    O    0.05492   0.33084   0.07845   1.000
    O219    O    0.14954   0.35686   0.07811   1.000
    O220    O    0.82509   0.76264   0.87403   1.000
    O221    O    0.82524   0.76558   0.62622   1.000
    O222    O    0.42752   0.26561   0.12581   1.000
    O223    O    0.17835   0.23785   0.37387   1.000
    O224    O    0.42782   0.26704   0.37407   1.000
    O225    O    0.67793   0.23726   0.12602   1.000
    O226    O    0.92781   0.26707   0.37410   1.000
    O227    O    0.67834   0.23785   0.37386   1.000
    O228    O    0.17784   0.23733   0.12604   1.000
    O229    O    0.32521   0.76559   0.62639   1.000
    O230    O    0.92738   0.26548   0.12590   1.000
    O231    O    0.57522   0.73755   0.62617   1.000
loop_
    _geom_bond_atom_site_label_1
    _geom_bond_atom_site_label_2
    _geom_bond_distance
    _geom_bond_site_symmetry_2
    _ccdc_geom_bond_type
    C40    O41       1.10644      .   S
    N39    O41       2.17441  1_545   S
    C40    O42       0.97644      .   S
    Zr13   O42       2.06048      .   S
    C40    O43       1.06323      .   S
    Zr6    O43       2.15280      .   S
    C44    O45       0.91873      .   S
    Zr12   O45       1.96766      .   S
    C44    O46       1.10769  1_556   S
    N24    O46       2.17122      .   S
    C44    O47       1.04811      .   S
    Zr6    O47       2.12526      .   S
    C48    O49       0.97118      .   S
    Zr6    O49       2.02060      .   S
    C48    O50       1.05284      .   S
    Zr12   O50       2.13732      .   S
    C48    O51       1.10575      .   S
    N29    O51       2.17386      .   S
    C52    O53       1.11047  1_556   S
    N32    O53       2.17774      .   S
    C52    O54       0.89045      .   S
    Zr7    O54       1.93525      .   S
    C52    O55       1.05164      .   S
    Zr12   O55       2.13155      .   S
    C56    O57       1.11528      .   S
    N34    O57       2.18426      .   S
    C56    O58       1.04508      .   S
    Zr13   O58       2.10144  1_455   S
    C59    O60       1.10574      .   S
    N25    O60       2.17388      .   S
    C59    O61       0.97338      .   S
    Zr7    O61       2.02421      .   S
    C59    O62       1.03364      .   S
    Zr13   O62       2.09593  1_455   S
    C63    O64       0.95336      .   S
    Zr12   O64       1.99958      .   S
    C63    O65       1.06192      .   S
    Zr7    O65       2.15282      .   S
    C63    O66       1.10708      .   S
    N37    O66       2.17562  1_545   S
    C67    O68       0.88855      .   S
    Zr6    O68       1.93065      .   S
    C67    O69       1.07016      .   S
    Zr13   O69       2.18449      .   S
    C67    O70       1.11061  1_556   S
    N19    O70       2.17772      .   S
    C71    O72       0.90572      .   S
    Zr13   O72       1.92383  1_455   S
    C71    O73       1.10964  1_556   S
    N27    O73       2.17742      .   S
    C71    O74       1.04252      .   S
    Zr7    O74       2.11469      .   S
    C75    O76       1.04623      .   S
    Zr6    O76       2.13513      .   S
    C75    O77       0.87050      .   S
    Zr13   O77       1.93925      .   S
    C75    O78       1.11349      .   S
    N38    O78       2.18166      .   S
    C79    O80       0.83400      .   S
    Zr6    O80       1.87555      .   S
    C79    O81       1.06069      .   S
    Zr12   O81       2.15843      .   S
    C79    O82       1.11562      .   S
    N28    O82       2.18475      .   S
    C83    O84       1.04776      .   S
    Zr7    O84       2.13616      .   S
    C83    O85       0.84905      .   S
    Zr12   O85       1.89398      .   S
    C83    O86       1.11287      .   S
    N35    O86       2.18116      .   S
    C87    O88       1.11484      .   S
    N38    O88       2.18250      .   S
    C87    O89       0.84045      .   S
    Zr1    O89       1.90399      .   S
    C87    O90       1.06354      .   S
    Zr10   O90       2.16653      .   S
    C91    O92       1.10987      .   S
    N22    O92       2.17758      .   S
    C91    O93       1.06011      .   S
    Zr1    O93       2.17474      .   S
    C91    O94       0.90717      .   S
    Zr10   O94       1.95384      .   S
    C95    O96       0.96926      .   S
    Zr11   O96       2.02076      .   S
    C95    O97       1.10565      .   S
    N17    O97       2.17396      .   S
    C95    O98       1.03611      .   S
    Zr1    O98       2.09743  1_455   S
    C99    O100      1.10911      .   S
    N30    O100      2.17590      .   S
    C99    O101      1.03618      .   S
    Zr10   O101      2.10493      .   S
    C99    O102      0.93301      .   S
    Zr0    O102      1.98585      .   S
    C103   O104      1.03635      .   S
    Zr11   O104      2.10491      .   S
    C103   O105      0.90606      .   S
    Zr1    O105      1.92019  1_455   S
    C103   O106      1.10905      .   S
    N20    O106      2.17579      .   S
    C107   O108      1.10665      .   S
    N26    O108      2.17516  1_545   S
    C107   O109      0.95989      .   S
    Zr0    O109      2.00940      .   S
    C107   O110      1.05597      .   S
    Zr11   O110      2.14185      .   S
    C111   O112      1.03899      .   S
    Zr0    O112      2.11425      .   S
    C111   O113      0.90662      .   S
    Zr11   O113      1.95265      .   S
    C111   O114      1.11037      .   S
    N16    O114      2.17889      .   S
    C115   O116      1.04259      .   S
    Zr1    O116      2.09703  1_455   S
    C115   O117      1.11508      .   S
    N34    O117      2.18414      .   S
    C118   O119      1.06360      .   S
    Zr11   O119      2.16652      .   S
    C118   O120      1.11456      .   S
    N35    O120      2.18213      .   S
    C121   O122      1.10667      .   S
    N31    O122      2.17518  1_545   S
    C121   O123      1.05614      .   S
    Zr10   O123      2.14206      .   S
    C121   O124      0.98940      .   S
    Zr1    O124      2.08376      .   S
    C125   O126      0.96887      .   S
    Zr10   O126      2.02023      .   S
    C125   O127      1.05627      .   S
    Zr0    O127      2.14217      .   S
    C125   O128      1.10566      .   S
    N18    O128      2.17392      .   S
    C129   O130      1.06847      .   S
    Zr0    O130      2.17746      .   S
    C129   O131      1.11550      .   S
    N28    O131      2.18472      .   S
    C132   O133      1.11460      .   S
    N21    O133      2.18304      .   S
    C132   O134      1.05695      .   S
    Zr2    O134      2.15628      .   S
    C135   O136      1.11505      .   S
    N33    O136      2.18429      .   S
    C135   O137      1.06674      .   S
    Zr9    O137      2.17252      .   S
    C138   O139      1.04288      .   S
    Zr8    O139      2.11228      .   S
    C138   O140      1.11186      .   S
    N17    O140      2.17923      .   S
    C138   O141      0.90288      .   S
    Zr3    O141      1.94904      .   S
    C142   O143      1.05723      .   S
    Zr2    O143      2.14431      .   S
    C142   O144      0.95939      .   S
    Zr9    O144      2.00870      .   S
    C142   O145      1.10753      .   S
    N30    O145      2.17759  1_565   S
    C146   O147      1.11487      .   S
    N23    O147      2.18391      .   S
    C146   O148      1.05688      .   S
    Zr3    O148      2.15611      .   S
    C149   O150      1.10923      .   S
    N31    O150      2.17663      .   S
    C149   O151      1.03805      .   S
    Zr2    O151      2.10824      .   S
    C149   O152      0.93031      .   S
    Zr8    O152      1.97995  1_655   S
    C153   O154      0.96928      .   S
    Zr3    O154      2.02006      .   S
    C153   O155      1.05580      .   S
    Zr9    O155      2.14135      .   S
    C153   O156      1.10485      .   S
    N16    O156      2.17371      .   S
    C157   O158      1.06672      .   S
    Zr8    O158      2.17244  1_655   S
    C157   O159      1.11501      .   S
    N36    O159      2.18415      .   S
    C160   O161      1.05732      .   S
    Zr3    O161      2.14475      .   S
    C160   O162      1.10823      .   S
    N20    O162      2.17830  1_565   S
    C160   O163      0.95949      .   S
    Zr8    O163      2.00874      .   S
    C164   O165      0.96933      .   S
    Zr2    O165      2.02006      .   S
    C164   O166      1.10553      .   S
    N22    O166      2.17357      .   S
    C164   O167      1.05576      .   S
    Zr8    O167      2.14131  1_655   S
    C168   O169      0.93026      .   S
    Zr9    O169      1.97986      .   S
    C168   O170      1.03790      .   S
    Zr3    O170      2.10793      .   S
    C168   O171      1.10926      .   S
    N26    O171      2.17678      .   S
    C172   O173      1.11011      .   S
    N18    O173      2.17753      .   S
    C172   O174      1.04222      .   S
    Zr9    O174      2.11738      .   S
    C172   O175      0.90452      .   S
    Zr2    O175      1.95114      .   S
    C176   O177      1.11439      .   S
    N23    O177      2.18209      .   S
    C176   O178      1.06297      .   S
    Zr15   O178      2.16819      .   S
    C179   O180      1.04208      .   S
    Zr4    O180      2.11878      .   S
    C179   O181      1.11053  1_554   S
    N25    O181      2.17832      .   S
    C179   O182      0.90297      .   S
    Zr15   O182      1.94903      .   S
    C183   O184      1.03992      .   S
    Zr15   O184      2.11172      .   S
    C183   O185      0.92552      .   S
    Zr5    O185      1.97758      .   S
    C183   O186      1.11047  1_554   S
    N37    O186      2.17908      .   S
    C187   O188      0.90390      .   S
    Zr14   O188      1.95016      .   S
    C187   O189      1.11072  1_554   S
    N29    O189      2.17866      .   S
    C187   O190      1.04215      .   S
    Zr5    O190      2.11895      .   S
    C191   O192      0.97586      .   S
    Zr15   O192      2.02850      .   S
    C191   O193      1.10529      .   S
    N32    O193      2.17351      .   S
    C191   O194      1.04907      .   S
    Zr5    O194      2.13175      .   S
    C195   O196      1.11518      .   S
    N36    O196      2.18384      .   S
    C195   O197      1.06996      .   S
    Zr4    O197      2.17937  1_655   S
    C198   O199      0.95487      .   S
    Zr4    O199      2.00363      .   S
    C198   O200      1.06059      .   S
    Zr15   O200      2.14725      .   S
    C198   O201      1.10628      .   S
    N27    O201      2.17438  1_565   S
    C202   O203      0.95884      .   S
    Zr5    O203      2.00645      .   S
    C202   O204      1.05703      .   S
    Zr14   O204      2.14186      .   S
    C202   O205      1.10725      .   S
    N24    O205      2.17705  1_565   S
    C206   O207      1.10941  1_554   S
    N39    O207      2.17737      .   S
    C206   O208      0.92680      .   S
    Zr4    O208      1.97811  1_655   S
    C206   O209      1.03963      .   S
    Zr14   O209      2.11170      .   S
    C210   O211      1.06317      .   S
    Zr14   O211      2.16804      .   S
    C210   O212      1.11480      .   S
    N21    O212      2.18315      .   S
    C213   O214      1.11528      .   S
    N33    O214      2.18391      .   S
    C213   O215      1.06962      .   S
    Zr5    O215      2.17905      .   S
    C216   O217      1.10517      .   S
    N19    O217      2.17335      .   S
    C216   O218      1.05037      .   S
    Zr4    O218      2.13454  1_655   S
    C216   O219      0.97549      .   S
    Zr14   O219      2.02710      .   S
    C56    O220      0.70719      .   S
    Zr7    O220      1.92353      .   S
    C115   O221      0.70768      .   S
    Zr11   O221      1.92547      .   S
    C210   O222      0.70499      .   S
    Zr5    O222      1.91637      .   S
    C157   O223      0.70904      .   S
    Zr2    O223      1.92995      .   S
    C132   O224      0.70835      .   S
    Zr9    O224      1.92766      .   S
    Zr15   O225      1.90914      .   S
    C213   O225      0.70273      .   S
    Zr8    O226      1.92784      .   S
    C146   O226      0.70841      .   S
    C135   O227      0.70918      .   S
    Zr3    O227      1.93032      .   S
    C195   O228      0.70343      .   S
    Zr14   O228      1.91151      .   S
    Zr10   O229      1.92427      .   S
    C129   O229      0.70736      .   S
    C176   O230      0.70464      .   S
    Zr4    O230      1.91530      .   S
    C118   O231      0.70296      .   S
    Zr0    O231      1.90972      .   S
