# CIF file generated by openbabel 2.4.90, see http://openbabel.sf.net
data_I
_chemical_name_common ''
_cell_length_a 13.075
_cell_length_b 13.975
_cell_length_c 16.924
_cell_angle_alpha 90.001
_cell_angle_beta 90
_cell_angle_gamma 89.9
_space_group_name_H-M_alt 'P 1'
_space_group_name_Hall 'P 1'
loop_
    _symmetry_equiv_pos_as_xyz
    x,y,z
loop_
    _atom_site_label
    _atom_site_type_symbol
    _atom_site_fract_x
    _atom_site_fract_y
    _atom_site_fract_z
    _atom_site_occupancy
    C0      C    0.96706   0.41648   0.74202   1.000
    C1      C    0.92393   0.51586   0.71929   1.000
    C2      C    0.03294   0.08351   0.24200   1.000
    C3      C    0.07606   0.98412   0.21927   1.000
    C4      C    0.46784   0.58400   0.75785   1.000
    C5      C    0.42277   0.48542   0.78037   1.000
    C6      C    0.53215   0.91601   0.25784   1.000
    C7      C    0.57723   0.01458   0.28036   1.000
    C8      C    0.03295   0.58348   0.25800   1.000
    C9      C    0.07607   0.48410   0.28070   1.000
    C10     C    0.96707   0.91645   0.75801   1.000
    C11     C    0.92393   0.01583   0.78073   1.000
    C12     C    0.53219   0.41601   0.24216   1.000
    C13     C    0.57725   0.51458   0.21965   1.000
    C14     C    0.46784   0.08399   0.74215   1.000
    C15     C    0.42276   0.98541   0.71964   1.000
loop_
    _geom_bond_atom_site_label_1
    _geom_bond_atom_site_label_2
    _geom_bond_distance
    _geom_bond_site_symmetry_2
    _ccdc_geom_bond_type
    C3     C2        1.54676  1_565   S
    C13    C12       1.54692      .   S
    C6     C7        1.54702  1_565   S
    C8     C9        1.54652      .   S
    C1     C0        1.54666      .   S
    C15    C14       1.54700  1_565   S
    C4     C5        1.54696      .   S
    C10    C11       1.54671  1_565   S
