# CIF file generated by openbabel 2.4.90, see http://openbabel.sf.net
data_I
_chemical_name_common ''
_cell_length_a 20.365
_cell_length_b 17.894
_cell_length_c 19.845
_cell_angle_alpha 90.021
_cell_angle_beta 90.013
_cell_angle_gamma 89.977
_space_group_name_H-M_alt 'P 1'
_space_group_name_Hall 'P 1'
loop_
    _symmetry_equiv_pos_as_xyz
    x,y,z
loop_
    _atom_site_label
    _atom_site_type_symbol
    _atom_site_fract_x
    _atom_site_fract_y
    _atom_site_fract_z
    _atom_site_occupancy
    Zr0     Zr   0.48324   0.75001   0.74997   1.000
    Zr1     Zr   0.98303   0.74962   0.75011   1.000
    Zr2     Zr   0.26649   0.25070   0.24997   1.000
    Zr3     Zr   0.76700   0.25000   0.24995   1.000
    Zr4     Zr   0.01690   0.24991   0.25006   1.000
    Zr5     Zr   0.51703   0.25038   0.25001   1.000
    Zr6     Zr   0.23414   0.74978   0.75075   1.000
    Zr7     Zr   0.73314   0.74998   0.74999   1.000
    N8      N    0.08562   0.81070   0.51876   1.000
    O9      O    0.05670   0.78036   0.61421   1.000
    O10     O    0.14491   0.79111   0.60940   1.000
    N11     N    0.75000   0.99994   0.99951   1.000
    O12     O    0.73615   0.90626   0.88316   1.000
    O13     O    0.76389   0.09367   0.11632   1.000
    N14     N    0.33582   0.81139   0.98267   1.000
    O15     O    0.30731   0.78120   0.88696   1.000
    O16     O    0.39505   0.79169   0.89202   1.000
    N17     N    0.83499   0.81107   0.98227   1.000
    O18     O    0.80644   0.78131   0.88636   1.000
    O19     O    0.89444   0.79136   0.89183   1.000
    N20     N    0.33489   0.68871   0.51788   1.000
    O21     O    0.30672   0.71856   0.61391   1.000
    O22     O    0.39450   0.70841   0.60826   1.000
    N23     N    0.83493   0.68895   0.51770   1.000
    O24     O    0.80640   0.71868   0.61362   1.000
    O25     O    0.89440   0.70842   0.60823   1.000
    N26     N    0.25009   0.50015   0.50064   1.000
    O27     O    0.23713   0.59355   0.61745   1.000
    O28     O    0.26314   0.40680   0.38369   1.000
    N29     N    0.75005   0.50009   0.49993   1.000
    O30     O    0.76392   0.40634   0.38336   1.000
    O31     O    0.73618   0.59374   0.61654   1.000
    N32     N    0.58509   0.81129   0.51777   1.000
    O33     O    0.55653   0.78144   0.61363   1.000
    O34     O    0.64454   0.79157   0.60823   1.000
    N35     N    0.00008   0.99976   0.49985   1.000
    O36     O    0.98624   0.90597   0.61647   1.000
    O37     O    0.01388   0.09355   0.38338   1.000
    N38     N    0.41553   0.18997   0.48184   1.000
    O39     O    0.44390   0.21997   0.38617   1.000
    O40     O    0.35574   0.20989   0.39157   1.000
    N41     N    0.91508   0.18862   0.48214   1.000
    O42     O    0.94361   0.21849   0.38631   1.000
    O43     O    0.85561   0.20837   0.39170   1.000
    N44     N    0.66502   0.18881   0.01777   1.000
    O45     O    0.69361   0.21862   0.11365   1.000
    O46     O    0.60559   0.20858   0.10824   1.000
    N47     N    0.25142   0.00053   0.99991   1.000
    O48     O    0.26449   0.09425   0.11670   1.000
    O49     O    0.23780   0.90655   0.88367   1.000
    N50     N    0.16509   0.18869   0.01777   1.000
    O51     O    0.19346   0.21876   0.11363   1.000
    O52     O    0.10555   0.20837   0.10822   1.000
    N53     N    0.08521   0.68886   0.98232   1.000
    O54     O    0.05652   0.71858   0.88645   1.000
    O55     O    0.14485   0.70851   0.89202   1.000
    N56     N    0.58524   0.68859   0.98215   1.000
    O57     O    0.55661   0.71849   0.88630   1.000
    O58     O    0.64463   0.70835   0.89170   1.000
    N59     N    0.49989   0.00012   0.50010   1.000
    O60     O    0.48613   0.90635   0.61662   1.000
    O61     O    0.51372   0.09395   0.38354   1.000
    N62     N    0.16483   0.31139   0.48231   1.000
    O63     O    0.19332   0.28160   0.38642   1.000
    O64     O    0.10540   0.29161   0.39184   1.000
    N65     N    0.66549   0.31122   0.48213   1.000
    O66     O    0.69387   0.28138   0.38626   1.000
    O67     O    0.60587   0.29167   0.39172   1.000
    N68     N    0.50004   0.50008   0.99928   1.000
    O69     O    0.48620   0.59375   0.88300   1.000
    O70     O    0.51392   0.40648   0.11615   1.000
    N71     N    0.99996   0.50000   0.99992   1.000
    O72     O    0.98610   0.59357   0.88352   1.000
    O73     O    0.01385   0.40626   0.11663   1.000
    N74     N    0.41491   0.31126   0.01784   1.000
    O75     O    0.44357   0.28151   0.11370   1.000
    O76     O    0.35540   0.29174   0.10829   1.000
    N77     N    0.91512   0.31125   0.01782   1.000
    O78     O    0.94364   0.28139   0.11370   1.000
    O79     O    0.85563   0.29155   0.10824   1.000
loop_
    _geom_bond_atom_site_label_1
    _geom_bond_atom_site_label_2
    _geom_bond_distance
    _geom_bond_site_symmetry_2
    _ccdc_geom_bond_type
    N8     O9        2.05695      .   S
    Zr1    O9        3.13530  1_655   S
    N8     O10       2.19430      .   S
    Zr6    O10       3.42283      .   S
    N11    O12       2.86671      .   S
    Zr7    O12       3.84741      .   S
    N11    O13       2.87463  1_566   S
    Zr3    O13       3.85454      .   S
    N14    O15       2.05806      .   S
    Zr6    O15       3.13714      .   S
    N14    O16       2.19442      .   S
    Zr0    O16       3.42464      .   S
    N17    O18       2.05995      .   S
    Zr7    O18       3.14070      .   S
    N17    O19       2.19369      .   S
    Zr1    O19       3.42375      .   S
    N20    O21       2.06050      .   S
    Zr6    O21       3.14200      .   S
    N20    O22       2.19412      .   S
    Zr0    O22       3.42426      .   S
    N23    O24       2.05997      .   S
    Zr7    O24       3.14056      .   S
    N23    O25       2.19411      .   S
    Zr1    O25       3.42447      .   S
    N26    O27       2.86948      .   S
    Zr6    O27       3.84848      .   S
    N26    O28       2.87136      .   S
    Zr2    O28       3.85266      .   S
    N29    O30       2.87087      .   S
    Zr3    O30       3.85154      .   S
    N29    O31       2.87055      .   S
    Zr7    O31       3.85078      .   S
    N32    O33       2.06009      .   S
    Zr0    O33       3.14144      .   S
    N32    O34       2.19368      .   S
    Zr7    O34       3.42373      .   S
    N35    O36       2.87313  1_455   S
    Zr1    O36       3.85638      .   S
    N35    O37       2.87096  1_565   S
    Zr4    O37       3.85181      .   S
    N38    O39       2.05625      .   S
    Zr5    O39       3.13353      .   S
    N38    O40       2.19492      .   S
    Zr2    O40       3.42513      .   S
    N41    O42       2.05953      .   S
    Zr4    O42       3.13977  1_455   S
    N41    O43       2.19370      .   S
    Zr3    O43       3.42375      .   S
    N44    O45       2.05979      .   S
    Zr3    O45       3.14054      .   S
    N44    O46       2.19402      .   S
    Zr5    O46       3.42447      .   S
    N47    O48       2.87267  1_556   S
    Zr2    O48       3.85070      .   S
    N47    O49       2.86774  1_545   S
    Zr6    O49       3.85064      .   S
    N50    O51       2.05941      .   S
    Zr2    O51       3.13968      .   S
    N50    O52       2.19476      .   S
    Zr4    O52       3.42552      .   S
    N53    O54       2.06013      .   S
    Zr1    O54       3.14116  1_655   S
    N53    O55       2.19349      .   S
    Zr6    O55       3.42291      .   S
    N56    O57       2.06022      .   S
    Zr0    O57       3.14153      .   S
    N56    O58       2.19355      .   S
    Zr7    O58       3.42310      .   S
    N59    O60       2.87129  1_545   S
    Zr0    O60       3.85208      .   S
    N59    O61       2.87266      .   S
    Zr5    O61       3.85592      .   S
    N62    O63       2.05944      .   S
    Zr2    O63       3.13987      .   S
    N62    O64       2.19371      .   S
    Zr4    O64       3.42338      .   S
    N65    O66       2.05881      .   S
    Zr3    O66       3.13853      .   S
    N65    O67       2.19412      .   S
    Zr5    O67       3.42426      .   S
    N68    O69       2.86632      .   S
    Zr0    O69       3.84663      .   S
    N68    O70       2.87515  1_556   S
    Zr5    O70       3.85588      .   S
    N71    O72       2.86729      .   S
    Zr1    O72       3.84906      .   S
    N71    O73       2.87396  1_656   S
    Zr4    O73       3.85339      .   S
    N74    O75       2.05981      .   S
    Zr5    O75       3.14074      .   S
    N74    O76       2.19419      .   S
    Zr2    O76       3.42456      .   S
    N77    O78       2.05984      .   S
    Zr4    O78       3.14080  1_455   S
    N77    O79       2.19397      .   S
    Zr3    O79       3.42408      .   S
