# CIF file generated by openbabel 2.4.90, see http://openbabel.sf.net
data_I
_chemical_name_common ''
_cell_length_a 20.365
_cell_length_b 17.894
_cell_length_c 19.845
_cell_angle_alpha 90.021
_cell_angle_beta 90.013
_cell_angle_gamma 89.977
_space_group_name_H-M_alt 'P 1'
_space_group_name_Hall 'P 1'
loop_
    _symmetry_equiv_pos_as_xyz
    x,y,z
loop_
    _atom_site_label
    _atom_site_type_symbol
    _atom_site_fract_x
    _atom_site_fract_y
    _atom_site_fract_z
    _atom_site_occupancy
    N0      N    0.08562   0.81070   0.51876   1.000
    N1      N    0.75000   0.99994   0.99951   1.000
    N2      N    0.33582   0.81139   0.98267   1.000
    N3      N    0.83499   0.81107   0.98227   1.000
    N4      N    0.33489   0.68871   0.51788   1.000
    N5      N    0.83493   0.68895   0.51770   1.000
    N6      N    0.25009   0.50015   0.50064   1.000
    N7      N    0.75005   0.50009   0.49993   1.000
    N8      N    0.58509   0.81129   0.51777   1.000
    N9      N    0.00008   0.99976   0.49985   1.000
    N10     N    0.41553   0.18997   0.48184   1.000
    N11     N    0.91508   0.18862   0.48214   1.000
    N12     N    0.66502   0.18881   0.01777   1.000
    N13     N    0.25142   0.00053   0.99991   1.000
    N14     N    0.16509   0.18869   0.01777   1.000
    N15     N    0.08521   0.68886   0.98232   1.000
    N16     N    0.58524   0.68859   0.98215   1.000
    N17     N    0.49989   0.00012   0.50010   1.000
    N18     N    0.16483   0.31139   0.48231   1.000
    N19     N    0.66549   0.31122   0.48213   1.000
    N20     N    0.50004   0.50008   0.99928   1.000
    N21     N    0.99996   0.50000   0.99992   1.000
    N22     N    0.41491   0.31126   0.01784   1.000
    N23     N    0.91512   0.31125   0.01782   1.000
    Zr24    Zr   0.48324   0.75001   0.74997   1.000
    O25     O    0.51992   0.73425   0.81814   1.000
    O26     O    0.43887   0.72921   0.67911   1.000
    O27     O    0.43914   0.77085   0.82100   1.000
    O28     O    0.48468   0.82818   0.68330   1.000
    O29     O    0.48472   0.67188   0.81648   1.000
    O30     O    0.51988   0.76573   0.68180   1.000
    Zr31    Zr   0.01690   0.24991   0.25006   1.000
    O32     O    0.98027   0.26565   0.18188   1.000
    O33     O    0.06122   0.22914   0.17914   1.000
    O34     O    0.01537   0.32808   0.18334   1.000
    O35     O    0.98025   0.23420   0.31818   1.000
    O36     O    0.01539   0.17173   0.31672   1.000
    O37     O    0.06115   0.27076   0.32095   1.000
    Zr38    Zr   0.73314   0.74998   0.74999   1.000
    O39     O    0.68884   0.77078   0.67911   1.000
    O40     O    0.68889   0.72917   0.82084   1.000
    O41     O    0.73465   0.82812   0.81658   1.000
    O42     O    0.73466   0.67186   0.68326   1.000
    O43     O    0.76977   0.73433   0.68181   1.000
    O44     O    0.76979   0.76565   0.81817   1.000
    Zr45    Zr   0.26649   0.25070   0.24997   1.000
    O46     O    0.22991   0.26615   0.31820   1.000
    O47     O    0.26549   0.17247   0.18334   1.000
    O48     O    0.31111   0.23029   0.32077   1.000
    O49     O    0.22997   0.23473   0.18180   1.000
    O50     O    0.26481   0.32875   0.31683   1.000
    O51     O    0.31094   0.27122   0.17913   1.000
    Zr52    Zr   0.51703   0.25038   0.25001   1.000
    O53     O    0.48046   0.23518   0.31809   1.000
    O54     O    0.56145   0.27103   0.32087   1.000
    O55     O    0.51547   0.32843   0.18308   1.000
    O56     O    0.51538   0.17217   0.31678   1.000
    O57     O    0.56131   0.22948   0.17913   1.000
    O58     O    0.48030   0.26595   0.18185   1.000
    Zr59    Zr   0.76700   0.25000   0.24995   1.000
    O60     O    0.73044   0.26569   0.31810   1.000
    O61     O    0.81132   0.27078   0.17909   1.000
    O62     O    0.76545   0.17184   0.18313   1.000
    O63     O    0.76546   0.32817   0.31666   1.000
    O64     O    0.81130   0.22919   0.32082   1.000
    O65     O    0.73031   0.23431   0.18180   1.000
    Zr66    Zr   0.98303   0.74962   0.75011   1.000
    O67     O    0.93872   0.72902   0.67917   1.000
    O68     O    0.01977   0.73410   0.81828   1.000
    O69     O    0.98457   0.67159   0.81681   1.000
    O70     O    0.98464   0.82780   0.68329   1.000
    O71     O    0.01986   0.76499   0.68216   1.000
    O72     O    0.93874   0.77049   0.82097   1.000
    Zr73    Zr   0.23414   0.74978   0.75075   1.000
    O74     O    0.23597   0.82816   0.81721   1.000
    O75     O    0.27073   0.76549   0.81886   1.000
    O76     O    0.18949   0.72914   0.82138   1.000
    O77     O    0.23563   0.67167   0.68410   1.000
    O78     O    0.18952   0.77045   0.68007   1.000
    O79     O    0.27043   0.73417   0.68233   1.000
loop_
    _geom_bond_atom_site_label_1
    _geom_bond_atom_site_label_2
    _geom_bond_distance
    _geom_bond_site_symmetry_2
    _ccdc_geom_bond_type
    Zr24   O25       1.57077      .   S
    N16    O25       3.60980      .   S
    Zr24   O26       1.71213      .   S
    N4     O26       3.90438      .   S
    Zr24   O27       1.71232      .   S
    N2     O27       3.90486      .   S
    Zr24   O28       1.92604      .   S
    N17    O28       4.77371  1_545   S
    Zr24   O29       1.92332      .   S
    N20    O29       4.76591      .   S
    Zr24   O30       1.57072      .   S
    N8     O30       3.60961      .   S
    Zr31   O32       1.57040  1_455   S
    N23    O32       3.60898      .   S
    Zr31   O33       1.71276      .   S
    N14    O33       3.90566      .   S
    Zr31   O34       1.92670      .   S
    N21    O34       4.77689  1_656   S
    Zr31   O35       1.56988  1_455   S
    N11    O35       3.60812      .   S
    Zr31   O36       1.92591      .   S
    N9     O36       4.77330  1_565   S
    Zr31   O37       1.71169      .   S
    N18    O37       3.90355      .   S
    Zr38   O39       1.71186      .   S
    N8     O39       3.90371      .   S
    Zr38   O40       1.71155      .   S
    N16    O40       3.90327      .   S
    Zr38   O41       1.92371      .   S
    N1     O41       4.76674      .   S
    Zr38   O42       1.92539      .   S
    N7     O42       4.77223      .   S
    Zr38   O43       1.57028      .   S
    N5     O43       3.60902      .   S
    Zr38   O44       1.57035      .   S
    N3     O44       3.60905      .   S
    Zr45   O46       1.56993      .   S
    N18    O46       3.60801      .   S
    Zr45   O47       1.92535      .   S
    N13    O47       4.77395  1_556   S
    Zr45   O48       1.71256      .   S
    N10    O48       3.90595      .   S
    Zr45   O49       1.56984      .   S
    N14    O49       3.60807      .   S
    Zr45   O50       1.92633      .   S
    N6     O50       4.77432      .   S
    Zr45   O51       1.71228      .   S
    N22    O51       3.90472      .   S
    Zr52   O53       1.56677      .   S
    N10    O53       3.60112      .   S
    Zr52   O54       1.71213      .   S
    N19    O54       3.90442      .   S
    Zr52   O55       1.92794      .   S
    N20    O55       4.77958  1_556   S
    Zr52   O56       1.92796      .   S
    N17    O56       4.77726      .   S
    Zr52   O57       1.71223      .   S
    N12    O57       3.90437      .   S
    Zr52   O58       1.57037      .   S
    N22    O58       3.60887      .   S
    Zr59   O60       1.56926      .   S
    N19    O60       3.60670      .   S
    Zr59   O61       1.71204      .   S
    N23    O61       3.90417      .   S
    Zr59   O62       1.92727      .   S
    N1     O62       4.77820  1_566   S
    Zr59   O63       1.92577      .   S
    N7     O63       4.77300      .   S
    Zr59   O64       1.71188      .   S
    N11    O64       3.90373      .   S
    Zr59   O65       1.57027      .   S
    N12    O65       3.60877      .   S
    Zr66   O67       1.71223      .   S
    N5     O67       3.90451      .   S
    Zr66   O68       1.57058  1_655   S
    N15    O68       3.60942      .   S
    Zr66   O69       1.92453      .   S
    N21    O69       4.76835      .   S
    Zr66   O70       1.92819      .   S
    N9     O70       4.77794  1_455   S
    Zr66   O71       1.56765  1_655   S
    N0     O71       3.60300      .   S
    Zr66   O72       1.71188      .   S
    N3     O72       3.90368      .   S
    Zr73   O74       1.92532      .   S
    N13    O74       4.76970  1_545   S
    Zr73   O75       1.56857      .   S
    N2     O75       3.60524      .   S
    Zr73   O76       1.71146      .   S
    N15    O76       3.90323      .   S
    Zr73   O77       1.92424      .   S
    N6     O77       4.77003      .   S
    Zr73   O78       1.71141      .   S
    N0     O78       3.90401      .   S
    Zr73   O79       1.57100      .   S
    N4     O79       3.61040      .   S
