# CIF file generated by openbabel 2.4.90, see http://openbabel.sf.net
data_I
_chemical_name_common ''
_cell_length_a 20.365
_cell_length_b 17.894
_cell_length_c 19.845
_cell_angle_alpha 90.021
_cell_angle_beta 90.013
_cell_angle_gamma 89.977
_space_group_name_H-M_alt 'P 1'
_space_group_name_Hall 'P 1'
loop_
    _symmetry_equiv_pos_as_xyz
    x,y,z
loop_
    _atom_site_label
    _atom_site_type_symbol
    _atom_site_fract_x
    _atom_site_fract_y
    _atom_site_fract_z
    _atom_site_occupancy
    C0      C    0.48324   0.75001   0.74997   1.000
    C1      C    0.98303   0.74962   0.75011   1.000
    C2      C    0.26649   0.25070   0.24997   1.000
    C3      C    0.76700   0.25000   0.24995   1.000
    C4      C    0.01690   0.24991   0.25006   1.000
    C5      C    0.51703   0.25038   0.25001   1.000
    C6      C    0.23414   0.74978   0.75075   1.000
    C7      C    0.73314   0.74998   0.74999   1.000
    C8      C    0.06366   0.94767   0.68700   1.000
    C9      C    0.56360   0.94781   0.68790   1.000
    C10     C    0.18604   0.85953   0.54028   1.000
    C11     C    0.68573   0.86000   0.53832   1.000
    C12     C    0.39498   0.93966   0.51042   1.000
    C13     C    0.89513   0.93921   0.51016   1.000
    C14     C    0.08726   0.01268   0.58059   1.000
    C15     C    0.58725   0.01280   0.58078   1.000
    C16     C    0.00293   0.74392   0.56570   1.000
    C17     C    0.50252   0.74511   0.56575   1.000
    C18     C    0.15446   0.89306   0.42240   1.000
    C19     C    0.65345   0.89278   0.42047   1.000
    C20     C    0.37996   0.87885   0.62126   1.000
    C21     C    0.88016   0.87838   0.62100   1.000
    C22     C    0.04715   0.85082   0.37637   1.000
    C23     C    0.54582   0.85032   0.37530   1.000
    C24     C    0.47044   0.77537   0.44788   1.000
    C25     C    0.97147   0.77514   0.44793   1.000
    C26     C    0.06352   0.55210   0.81260   1.000
    C27     C    0.56348   0.55192   0.81180   1.000
    C28     C    0.18610   0.64075   0.96187   1.000
    C29     C    0.68586   0.63979   0.96158   1.000
    C30     C    0.39506   0.56051   0.98941   1.000
    C31     C    0.89480   0.56014   0.98996   1.000
    C32     C    0.08724   0.48729   0.91985   1.000
    C33     C    0.58721   0.48700   0.91896   1.000
    C34     C    0.00233   0.75463   0.93430   1.000
    C35     C    0.50267   0.75493   0.93430   1.000
    C36     C    0.15398   0.60785   0.07972   1.000
    C37     C    0.65365   0.60693   0.07940   1.000
    C38     C    0.37996   0.62124   0.87852   1.000
    C39     C    0.87974   0.62085   0.87906   1.000
    C40     C    0.04609   0.64964   0.12472   1.000
    C41     C    0.54606   0.64947   0.12459   1.000
    C42     C    0.47066   0.72461   0.05216   1.000
    C43     C    0.97038   0.72417   0.05214   1.000
    C44     C    0.18684   0.05246   0.18792   1.000
    C45     C    0.68648   0.05210   0.18786   1.000
    C46     C    0.06430   0.14017   0.03790   1.000
    C47     C    0.56430   0.14026   0.03812   1.000
    C48     C    0.35636   0.06103   0.00000   1.000
    C49     C    0.85506   0.06012   0.00000   1.000
    C50     C    0.16378   0.98763   0.08053   1.000
    C51     C    0.66275   0.98716   0.08068   1.000
    C52     C    0.24754   0.25484   0.06602   1.000
    C53     C    0.74763   0.25486   0.06591   1.000
    C54     C    0.09692   0.10728   0.92017   1.000
    C55     C    0.59663   0.10753   0.92026   1.000
    C56     C    0.37078   0.12166   0.12248   1.000
    C57     C    0.87013   0.12093   0.12129   1.000
    C58     C    0.20477   0.14949   0.87550   1.000
    C59     C    0.70437   0.14982   0.87536   1.000
    C60     C    0.27998   0.22442   0.94831   1.000
    C61     C    0.77977   0.22461   0.94800   1.000
    C62     C    0.18410   0.44855   0.31360   1.000
    C63     C    0.68658   0.44817   0.31197   1.000
    C64     C    0.06385   0.35941   0.46209   1.000
    C65     C    0.56492   0.36035   0.46184   1.000
    C66     C    0.35530   0.44057   0.48850   1.000
    C67     C    0.85505   0.43966   0.48960   1.000
    C68     C    0.16174   0.51306   0.42132   1.000
    C69     C    0.66290   0.51318   0.41913   1.000
    C70     C    0.24768   0.24580   0.43409   1.000
    C71     C    0.74780   0.24470   0.43400   1.000
    C72     C    0.09621   0.39234   0.57988   1.000
    C73     C    0.59750   0.39299   0.57960   1.000
    C74     C    0.36899   0.38027   0.37720   1.000
    C75     C    0.87010   0.37883   0.37872   1.000
    C76     C    0.20424   0.35070   0.62465   1.000
    C77     C    0.70512   0.35013   0.62450   1.000
    C78     C    0.27988   0.27629   0.55187   1.000
    C79     C    0.78018   0.27486   0.55179   1.000
    C80     C    0.43595   0.05283   0.31256   1.000
    C81     C    0.93653   0.05192   0.31202   1.000
    C82     C    0.31469   0.14175   0.46130   1.000
    C83     C    0.81448   0.13978   0.46164   1.000
    C84     C    0.10496   0.06025   0.48965   1.000
    C85     C    0.60506   0.06011   0.48900   1.000
    C86     C    0.41241   0.98775   0.41966   1.000
    C87     C    0.91286   0.98684   0.41910   1.000
    C88     C    0.49808   0.25630   0.43405   1.000
    C89     C    0.99757   0.25488   0.43416   1.000
    C90     C    0.34732   0.10783   0.57883   1.000
    C91     C    0.84684   0.10701   0.57940   1.000
    C92     C    0.12000   0.12114   0.37886   1.000
    C93     C    0.61993   0.12108   0.37880   1.000
    C94     C    0.45523   0.14949   0.62381   1.000
    C95     C    0.95444   0.14959   0.62454   1.000
    C96     C    0.02970   0.22464   0.55200   1.000
    C97     C    0.53053   0.22486   0.55155   1.000
    C98     C    0.43670   0.44851   0.18770   1.000
    C99     C    0.93645   0.44781   0.18826   1.000
    C100    C    0.31427   0.36002   0.03842   1.000
    C101    C    0.81436   0.35983   0.03813   1.000
    C102    C    0.10508   0.44001   0.00000   1.000
    C103    C    0.60495   0.43938   0.00000   1.000
    C104    C    0.41299   0.51339   0.08055   1.000
    C105    C    0.91268   0.51280   0.08114   1.000
    C106    C    0.49752   0.24500   0.06577   1.000
    C107    C    0.99771   0.24515   0.06590   1.000
    C108    C    0.34647   0.39281   0.92056   1.000
    C109    C    0.84679   0.39260   0.92034   1.000
    C110    C    0.12019   0.37914   0.12168   1.000
    C111    C    0.62003   0.37870   0.12088   1.000
    C112    C    0.45408   0.35030   0.87542   1.000
    C113    C    0.95458   0.35029   0.87549   1.000
    C114    C    0.02992   0.27544   0.94819   1.000
    C115    C    0.52951   0.27525   0.94790   1.000
    C116    C    0.31608   0.94814   0.81298   1.000
    C117    C    0.81350   0.94788   0.81209   1.000
    C118    C    0.43652   0.85994   0.96210   1.000
    C119    C    0.93572   0.85962   0.96200   1.000
    C120    C    0.14638   0.94059   0.98934   1.000
    C121    C    0.64498   0.93962   0.98960   1.000
    C122    C    0.33916   0.01333   0.92022   1.000
    C123    C    0.83722   0.01276   0.91931   1.000
    C124    C    0.25324   0.74511   0.93479   1.000
    C125    C    0.75239   0.74508   0.93407   1.000
    C126    C    0.40424   0.89307   0.07992   1.000
    C127    C    0.90336   0.89226   0.07986   1.000
    C128    C    0.13197   0.87959   0.87846   1.000
    C129    C    0.62990   0.87889   0.87868   1.000
    C130    C    0.29653   0.85094   0.12498   1.000
    C131    C    0.79561   0.84996   0.12471   1.000
    C132    C    0.22112   0.77584   0.05254   1.000
    C133    C    0.72022   0.77523   0.05193   1.000
    C134    C    0.31609   0.55186   0.68700   1.000
    C135    C    0.81354   0.55202   0.68788   1.000
    C136    C    0.43594   0.64068   0.53778   1.000
    C137    C    0.93562   0.64020   0.53804   1.000
    C138    C    0.14490   0.55961   0.51287   1.000
    C139    C    0.64506   0.56055   0.51026   1.000
    C140    C    0.33852   0.48733   0.58009   1.000
    C141    C    0.83728   0.48719   0.58065   1.000
    C142    C    0.25224   0.75435   0.56636   1.000
    C143    C    0.75236   0.75505   0.56587   1.000
    C144    C    0.40324   0.60780   0.42006   1.000
    C145    C    0.90328   0.60768   0.42014   1.000
    C146    C    0.13117   0.61997   0.62415   1.000
    C147    C    0.62995   0.62121   0.62120   1.000
    C148    C    0.29508   0.64947   0.37565   1.000
    C149    C    0.79557   0.65020   0.37523   1.000
    C150    C    0.21966   0.72390   0.44867   1.000
    C151    C    0.72020   0.72502   0.44798   1.000
    C152    C    0.09682   0.79883   0.55972   1.000
    C153    C    0.59648   0.79975   0.55875   1.000
    C154    C    0.02899   0.94899   0.64608   1.000
    C155    C    0.52891   0.94922   0.64631   1.000
    C156    C    0.13945   0.84100   0.51914   1.000
    C157    C    0.63896   0.84146   0.51761   1.000
    C158    C    0.49392   0.98280   0.53201   1.000
    C159    C    0.99402   0.98248   0.53177   1.000
    C160    C    0.43438   0.94380   0.54726   1.000
    C161    C    0.93453   0.94338   0.54700   1.000
    C162    C    0.04044   0.98403   0.58588   1.000
    C163    C    0.54039   0.98423   0.58609   1.000
    C164    C    0.03626   0.77543   0.53362   1.000
    C165    C    0.53571   0.77630   0.53320   1.000
    C166    C    0.12168   0.85938   0.45344   1.000
    C167    C    0.62081   0.85939   0.45193   1.000
    C168    C    0.42418   0.90947   0.60804   1.000
    C169    C    0.92436   0.90904   0.60778   1.000
    C170    C    0.06131   0.83556   0.42755   1.000
    C171    C    0.56025   0.83547   0.42650   1.000
    C172    C    0.01877   0.79348   0.46763   1.000
    C173    C    0.51788   0.79381   0.46718   1.000
    C174    C    0.11559   0.78004   0.63040   1.000
    C175    C    0.61574   0.78143   0.62947   1.000
    C176    C    0.09655   0.70047   0.94136   1.000
    C177    C    0.59660   0.70015   0.94120   1.000
    C178    C    0.02882   0.55071   0.85423   1.000
    C179    C    0.52884   0.55062   0.85344   1.000
    C180    C    0.13923   0.65903   0.98255   1.000
    C181    C    0.63910   0.65835   0.98230   1.000
    C182    C    0.49398   0.51727   0.96780   1.000
    C183    C    0.99388   0.51724   0.96852   1.000
    C184    C    0.43444   0.55633   0.95257   1.000
    C185    C    0.93426   0.55610   0.95319   1.000
    C186    C    0.04035   0.51578   0.91448   1.000
    C187    C    0.54038   0.51565   0.91367   1.000
    C188    C    0.03566   0.72359   0.96680   1.000
    C189    C    0.53586   0.72364   0.96681   1.000
    C190    C    0.12116   0.64102   0.04823   1.000
    C191    C    0.62100   0.64039   0.04800   1.000
    C192    C    0.42419   0.59059   0.89176   1.000
    C193    C    0.92403   0.59035   0.89230   1.000
    C194    C    0.06047   0.66457   0.07353   1.000
    C195    C    0.56046   0.66435   0.07300   1.000
    C196    C    0.01790   0.70600   0.03288   1.000
    C197    C    0.51808   0.70612   0.03283   1.000
    C198    C    0.11573   0.71880   0.87063   1.000
    C199    C    0.61580   0.71850   0.87051   1.000
    C200    C    0.15355   0.20029   0.05869   1.000
    C201    C    0.65362   0.20034   0.05875   1.000
    C202    C    0.22174   0.05115   0.14651   1.000
    C203    C    0.72115   0.05069   0.14626   1.000
    C204    C    0.11116   0.15862   0.01730   1.000
    C205    C    0.61112   0.15873   0.01750   1.000
    C206    C    0.25731   0.01784   0.03235   1.000
    C207    C    0.75607   0.01713   0.03190   1.000
    C208    C    0.31676   0.05682   0.04801   1.000
    C209    C    0.81564   0.05607   0.04721   1.000
    C210    C    0.21058   0.01623   0.08617   1.000
    C211    C    0.70962   0.01570   0.08601   1.000
    C212    C    0.21442   0.22365   0.03337   1.000
    C213    C    0.71442   0.22372   0.03330   1.000
    C214    C    0.12950   0.14063   0.95176   1.000
    C215    C    0.62929   0.14083   0.95180   1.000
    C216    C    0.32664   0.09104   0.10893   1.000
    C217    C    0.82588   0.09037   0.10803   1.000
    C218    C    0.19018   0.16441   0.92664   1.000
    C219    C    0.68990   0.16466   0.92655   1.000
    C220    C    0.23245   0.20607   0.96740   1.000
    C221    C    0.73229   0.20623   0.96728   1.000
    C222    C    0.13415   0.21865   0.12936   1.000
    C223    C    0.63433   0.21864   0.12948   1.000
    C224    C    0.15339   0.29973   0.44138   1.000
    C225    C    0.65399   0.29972   0.44119   1.000
    C226    C    0.21937   0.44997   0.35469   1.000
    C227    C    0.72124   0.44949   0.35361   1.000
    C228    C    0.11078   0.34117   0.48266   1.000
    C229    C    0.61168   0.34161   0.48244   1.000
    C230    C    0.25579   0.48310   0.46862   1.000
    C231    C    0.75614   0.48293   0.46798   1.000
    C232    C    0.31532   0.44456   0.45231   1.000
    C233    C    0.81566   0.44384   0.45275   1.000
    C234    C    0.20860   0.48468   0.41521   1.000
    C235    C    0.70973   0.48451   0.41380   1.000
    C236    C    0.21436   0.27672   0.46675   1.000
    C237    C    0.71474   0.27603   0.46661   1.000
    C238    C    0.12898   0.35920   0.54831   1.000
    C239    C    0.63000   0.35947   0.54810   1.000
    C240    C    0.32481   0.41056   0.39124   1.000
    C241    C    0.82589   0.40952   0.39194   1.000
    C242    C    0.18976   0.33573   0.57349   1.000
    C243    C    0.69055   0.33532   0.57333   1.000
    C244    C    0.23227   0.29436   0.53273   1.000
    C245    C    0.73274   0.29349   0.53260   1.000
    C246    C    0.13410   0.28130   0.37068   1.000
    C247    C    0.63457   0.28146   0.37040   1.000
    C248    C    0.40401   0.20193   0.44100   1.000
    C249    C    0.90366   0.20014   0.44119   1.000
    C250    C    0.47075   0.05123   0.35406   1.000
    C251    C    0.97118   0.05055   0.35365   1.000
    C252    C    0.36157   0.15998   0.48201   1.000
    C253    C    0.86124   0.15836   0.48233   1.000
    C254    C    0.00608   0.01700   0.46797   1.000
    C255    C    0.50594   0.01737   0.46822   1.000
    C256    C    0.06559   0.05609   0.45279   1.000
    C257    C    0.56554   0.05620   0.45287   1.000
    C258    C    0.45934   0.01614   0.41425   1.000
    C259    C    0.95968   0.01549   0.41384   1.000
    C260    C    0.46493   0.22494   0.46650   1.000
    C261    C    0.96442   0.22364   0.46671   1.000
    C262    C    0.37993   0.14139   0.54749   1.000
    C263    C    0.87943   0.14044   0.54800   1.000
    C264    C    0.07579   0.09046   0.39204   1.000
    C265    C    0.57567   0.09058   0.39210   1.000
    C266    C    0.44064   0.16487   0.57279   1.000
    C267    C    0.93998   0.16442   0.57335   1.000
    C268    C    0.48297   0.20675   0.53231   1.000
    C269    C    0.98229   0.20615   0.53272   1.000
    C270    C    0.38456   0.22094   0.37049   1.000
    C271    C    0.88436   0.21852   0.37049   1.000
    C272    C    0.40355   0.29972   0.05881   1.000
    C273    C    0.90368   0.29971   0.05878   1.000
    C274    C    0.47130   0.44967   0.14606   1.000
    C275    C    0.97112   0.44925   0.14660   1.000
    C276    C    0.36103   0.34147   0.01769   1.000
    C277    C    0.86120   0.34135   0.01753   1.000
    C278    C    0.00600   0.48285   0.03237   1.000
    C279    C    0.50612   0.48286   0.03165   1.000
    C280    C    0.06563   0.44399   0.04764   1.000
    C281    C    0.56561   0.44370   0.04686   1.000
    C282    C    0.45977   0.48462   0.08581   1.000
    C283    C    0.95957   0.48427   0.08645   1.000
    C284    C    0.46430   0.27623   0.03324   1.000
    C285    C    0.96453   0.27633   0.03330   1.000
    C286    C    0.37913   0.35939   0.95200   1.000
    C287    C    0.87943   0.35927   0.95188   1.000
    C288    C    0.07589   0.40965   0.10841   1.000
    C289    C    0.57585   0.40945   0.10768   1.000
    C290    C    0.43968   0.33544   0.92662   1.000
    C291    C    0.94008   0.33544   0.92666   1.000
    C292    C    0.48208   0.29372   0.96721   1.000
    C293    C    0.98244   0.29383   0.96738   1.000
    C294    C    0.38436   0.28144   0.12955   1.000
    C295    C    0.88436   0.28139   0.12947   1.000
    C296    C    0.34725   0.79968   0.94176   1.000
    C297    C    0.84640   0.79958   0.94130   1.000
    C298    C    0.28115   0.94970   0.85435   1.000
    C299    C    0.77884   0.94924   0.85371   1.000
    C300    C    0.38974   0.84149   0.98285   1.000
    C301    C    0.88890   0.84114   0.98259   1.000
    C302    C    0.24556   0.98339   0.96842   1.000
    C303    C    0.74393   0.98270   0.96806   1.000
    C304    C    0.18604   0.94452   0.95280   1.000
    C305    C    0.68438   0.94373   0.95278   1.000
    C306    C    0.29231   0.98479   0.91462   1.000
    C307    C    0.79037   0.98419   0.91397   1.000
    C308    C    0.28645   0.77638   0.96730   1.000
    C309    C    0.78559   0.77619   0.96670   1.000
    C310    C    0.37159   0.85962   0.04849   1.000
    C311    C    0.87070   0.85900   0.04829   1.000
    C312    C    0.17616   0.91014   0.89197   1.000
    C313    C    0.67414   0.90948   0.89190   1.000
    C314    C    0.31099   0.83588   0.07384   1.000
    C315    C    0.81008   0.83516   0.07350   1.000
    C316    C    0.26860   0.79413   0.03326   1.000
    C317    C    0.76771   0.79363   0.03274   1.000
    C318    C    0.36645   0.78112   0.87108   1.000
    C319    C    0.86569   0.78136   0.87056   1.000
    C320    C    0.34645   0.70032   0.55878   1.000
    C321    C    0.84635   0.70041   0.55869   1.000
    C322    C    0.28083   0.55038   0.64670   1.000
    C323    C    0.77888   0.55071   0.64624   1.000
    C324    C    0.38896   0.65892   0.51730   1.000
    C325    C    0.88883   0.65880   0.51741   1.000
    C326    C    0.24443   0.51715   0.53278   1.000
    C327    C    0.74401   0.51735   0.53185   1.000
    C328    C    0.18488   0.55566   0.54907   1.000
    C329    C    0.68445   0.55637   0.54710   1.000
    C330    C    0.29163   0.51564   0.58600   1.000
    C331    C    0.79043   0.51578   0.58597   1.000
    C332    C    0.28542   0.72337   0.53360   1.000
    C333    C    0.78555   0.72391   0.53324   1.000
    C334    C    0.37056   0.64093   0.45175   1.000
    C335    C    0.87064   0.64100   0.45170   1.000
    C336    C    0.17536   0.58968   0.61012   1.000
    C337    C    0.67420   0.59060   0.60795   1.000
    C338    C    0.30971   0.66442   0.42677   1.000
    C339    C    0.81004   0.66495   0.42640   1.000
    C340    C    0.26732   0.70578   0.46767   1.000
    C341    C    0.76768   0.70654   0.46719   1.000
    C342    C    0.36592   0.71870   0.62944   1.000
    C343    C    0.86564   0.71859   0.62945   1.000
    C344    C    0.47147   0.91095   0.65736   1.000
    C345    C    0.97163   0.91062   0.65713   1.000
    C346    C    0.47144   0.58902   0.84242   1.000
    C347    C    0.97135   0.58887   0.84309   1.000
    C348    C    0.27908   0.08947   0.15796   1.000
    C349    C    0.77859   0.08895   0.15734   1.000
    C350    C    0.27676   0.41193   0.34267   1.000
    C351    C    0.77863   0.41107   0.34259   1.000
    C352    C    0.02856   0.08891   0.34265   1.000
    C353    C    0.52824   0.08934   0.34291   1.000
    C354    C    0.02859   0.41104   0.15771   1.000
    C355    C    0.52864   0.41116   0.15706   1.000
    C356    C    0.22378   0.91141   0.84299   1.000
    C357    C    0.72141   0.91096   0.84260   1.000
    C358    C    0.22340   0.58836   0.65868   1.000
    C359    C    0.72145   0.58904   0.65730   1.000
    C360    C    0.46152   0.87516   0.71632   1.000
    C361    C    0.96179   0.87477   0.71606   1.000
    C362    C    0.07251   0.75041   0.66920   1.000
    C363    C    0.57269   0.75317   0.66900   1.000
    C364    C    0.17425   0.79326   0.64932   1.000
    C365    C    0.67482   0.79371   0.64741   1.000
    C366    C    0.46147   0.62483   0.78347   1.000
    C367    C    0.96144   0.62466   0.78412   1.000
    C368    C    0.07260   0.74697   0.83104   1.000
    C369    C    0.57271   0.74677   0.83093   1.000
    C370    C    0.17482   0.70654   0.85269   1.000
    C371    C    0.67489   0.70625   0.85250   1.000
    C372    C    0.28864   0.12523   0.21702   1.000
    C373    C    0.78855   0.12479   0.21630   1.000
    C374    C    0.17716   0.24696   0.16900   1.000
    C375    C    0.67740   0.24685   0.16911   1.000
    C376    C    0.07512   0.20621   0.14730   1.000
    C377    C    0.57527   0.20630   0.14741   1.000
    C378    C    0.28588   0.37619   0.28350   1.000
    C379    C    0.78855   0.37518   0.28365   1.000
    C380    C    0.17712   0.25294   0.33109   1.000
    C381    C    0.67752   0.25308   0.33082   1.000
    C382    C    0.07505   0.29375   0.35268   1.000
    C383    C    0.57548   0.29387   0.35262   1.000
    C384    C    0.03848   0.12479   0.28374   1.000
    C385    C    0.53809   0.12519   0.28397   1.000
    C386    C    0.42750   0.24955   0.33098   1.000
    C387    C    0.92738   0.24680   0.33089   1.000
    C388    C    0.32541   0.20893   0.35264   1.000
    C389    C    0.82527   0.20624   0.35256   1.000
    C390    C    0.03856   0.37513   0.21660   1.000
    C391    C    0.53856   0.37536   0.21602   1.000
    C392    C    0.42744   0.25313   0.16910   1.000
    C393    C    0.92740   0.25317   0.16910   1.000
    C394    C    0.32528   0.29375   0.14751   1.000
    C395    C    0.82526   0.29371   0.14735   1.000
    C396    C    0.21421   0.87537   0.78409   1.000
    C397    C    0.71145   0.87517   0.78364   1.000
    C398    C    0.32348   0.75223   0.83175   1.000
    C399    C    0.82265   0.75313   0.83090   1.000
    C400    C    0.42531   0.79396   0.85277   1.000
    C401    C    0.92477   0.79368   0.85266   1.000
    C402    C    0.21421   0.62414   0.71777   1.000
    C403    C    0.71148   0.62480   0.71630   1.000
    C404    C    0.32297   0.74705   0.66912   1.000
    C405    C    0.82259   0.74683   0.66909   1.000
    C406    C    0.42500   0.70623   0.64731   1.000
    C407    C    0.92470   0.70617   0.64739   1.000
    O408    O    0.33656   0.05893   0.02400   1.000
    O409    O    0.58528   0.44154   0.02343   1.000
    O410    O    0.08536   0.44200   0.02382   1.000
    O411    O    0.83535   0.05810   0.02361   1.000
    O412    O    0.08773   0.14939   0.02760   1.000
    O413    O    0.13236   0.17945   0.03800   1.000
    O414    O    0.12033   0.14962   0.98453   1.000
    O415    O    0.58771   0.14950   0.02781   1.000
    O416    O    0.63237   0.17954   0.03813   1.000
    O417    O    0.62020   0.14978   0.98465   1.000
    O418    O    0.83778   0.35059   0.02783   1.000
    O419    O    0.88244   0.32053   0.03816   1.000
    O420    O    0.87032   0.35031   0.98471   1.000
    O421    O    0.33765   0.35074   0.02806   1.000
    O422    O    0.38229   0.32059   0.03825   1.000
    O423    O    0.37008   0.35043   0.98485   1.000
    O424    O    0.53586   0.46328   0.03926   1.000
    O425    O    0.48294   0.48374   0.05873   1.000
    O426    O    0.50005   0.50006   0.99972   1.000
    O427    O    0.78585   0.03660   0.03956   1.000
    O428    O    0.73284   0.01642   0.05896   1.000
    O429    O    0.75000   0.99992   0.99998   1.000
    O430    O    0.28704   0.03733   0.04018   1.000
    O431    O    0.23394   0.01704   0.05926   1.000
    O432    O    0.25143   0.00062   0.00038   1.000
    O433    O    0.03582   0.46342   0.04000   1.000
    O434    O    0.98279   0.48356   0.05941   1.000
    O435    O    0.99994   0.50005   0.00045   1.000
    O436    O    0.74396   0.78443   0.04234   1.000
    O437    O    0.78889   0.81439   0.05312   1.000
    O438    O    0.77665   0.78491   0.99972   1.000
    O439    O    0.49437   0.71536   0.04249   1.000
    O440    O    0.53927   0.68523   0.05291   1.000
    O441    O    0.52697   0.71488   0.99982   1.000
    O442    O    0.99414   0.71508   0.04251   1.000
    O443    O    0.03918   0.68528   0.05321   1.000
    O444    O    0.02678   0.71480   0.99984   1.000
    O445    O    0.43392   0.28797   0.04603   1.000
    O446    O    0.48091   0.26061   0.04951   1.000
    O447    O    0.47319   0.28498   0.00023   1.000
    O448    O    0.24486   0.78499   0.04290   1.000
    O449    O    0.28979   0.81501   0.05355   1.000
    O450    O    0.27753   0.78526   0.00028   1.000
    O451    O    0.68402   0.21203   0.04603   1.000
    O452    O    0.73103   0.23929   0.04961   1.000
    O453    O    0.72335   0.21498   0.00029   1.000
    O454    O    0.93411   0.28802   0.04604   1.000
    O455    O    0.98112   0.26074   0.04960   1.000
    O456    O    0.97348   0.28508   0.00034   1.000
    O457    O    0.18399   0.21197   0.04603   1.000
    O458    O    0.23098   0.23925   0.04970   1.000
    O459    O    0.22344   0.21486   0.00039   1.000
    O460    O    0.57073   0.42657   0.07727   1.000
    O461    O    0.82076   0.07322   0.07762   1.000
    O462    O    0.07076   0.42682   0.07803   1.000
    O463    O    0.59073   0.65237   0.06050   1.000
    O464    O    0.63733   0.62366   0.06370   1.000
    O465    O    0.63005   0.64937   0.01515   1.000
    O466    O    0.32170   0.07393   0.07847   1.000
    O467    O    0.09081   0.65280   0.06088   1.000
    O468    O    0.13757   0.62444   0.06398   1.000
    O469    O    0.13020   0.65002   0.01539   1.000
    O470    O    0.84039   0.84708   0.06089   1.000
    O471    O    0.88703   0.87563   0.06408   1.000
    O472    O    0.87980   0.85007   0.01544   1.000
    O473    O    0.34129   0.84775   0.06117   1.000
    O474    O    0.38791   0.87635   0.06421   1.000
    O475    O    0.38066   0.85056   0.01567   1.000
    O476    O    0.14385   0.20947   0.09403   1.000
    O477    O    0.64397   0.20949   0.09412   1.000
    O478    O    0.89402   0.29055   0.09413   1.000
    O479    O    0.39395   0.29058   0.09418   1.000
    O480    O    0.55326   0.65691   0.09880   1.000
    O481    O    0.80285   0.84256   0.09910   1.000
    O482    O    0.05328   0.65710   0.09912   1.000
    O483    O    0.30376   0.84341   0.09941   1.000
    O484    O    0.18718   0.00193   0.08335   1.000
    O485    O    0.43638   0.49900   0.08318   1.000
    O486    O    0.68619   0.00143   0.08335   1.000
    O487    O    0.93613   0.49853   0.08379   1.000
    O488    O    0.46553   0.46714   0.11594   1.000
    O489    O    0.71539   0.03319   0.11614   1.000
    O490    O    0.21616   0.03369   0.11634   1.000
    O491    O    0.96535   0.46676   0.11653   1.000
    O492    O    0.59794   0.39408   0.11428   1.000
    O493    O    0.55225   0.41031   0.13237   1.000
    O494    O    0.84800   0.10565   0.11466   1.000
    O495    O    0.80224   0.08966   0.13268   1.000
    O496    O    0.09804   0.39440   0.11505   1.000
    O497    O    0.05224   0.41034   0.13306   1.000
    O498    O    0.34871   0.10635   0.11571   1.000
    O499    O    0.30286   0.09026   0.13344   1.000
    O500    O    0.10463   0.21243   0.13833   1.000
    O501    O    0.15566   0.23280   0.14918   1.000
    O502    O    0.85481   0.28755   0.13841   1.000
    O503    O    0.90588   0.26728   0.14929   1.000
    O504    O    0.60480   0.21247   0.13845   1.000
    O505    O    0.65587   0.23274   0.14930   1.000
    O506    O    0.35482   0.28760   0.13853   1.000
    O507    O    0.40590   0.26729   0.14933   1.000
    O508    O    0.49997   0.43042   0.15156   1.000
    O509    O    0.45400   0.44909   0.16688   1.000
    O510    O    0.74987   0.06982   0.15180   1.000
    O511    O    0.70382   0.05139   0.16706   1.000
    O512    O    0.25041   0.07031   0.15224   1.000
    O513    O    0.20429   0.05180   0.16722   1.000
    O514    O    0.99986   0.43014   0.15216   1.000
    O515    O    0.95379   0.44853   0.16743   1.000
    O516    O    0.04601   0.22806   0.19868   1.000
    O517    O    0.79613   0.27186   0.19865   1.000
    O518    O    0.54615   0.22834   0.19871   1.000
    O519    O    0.29588   0.27222   0.19874   1.000
    O520    O    0.53360   0.39326   0.18654   1.000
    O521    O    0.78357   0.10687   0.18682   1.000
    O522    O    0.03358   0.39308   0.18716   1.000
    O523    O    0.28386   0.10735   0.18749   1.000
    O524    O    0.22183   0.24883   0.20949   1.000
    O525    O    0.97215   0.25154   0.20958   1.000
    O526    O    0.47224   0.25176   0.20956   1.000
    O527    O    0.72220   0.24843   0.20953   1.000
    O528    O    0.52779   0.31287   0.23302   1.000
    O529    O    0.77778   0.18740   0.23312   1.000
    O530    O    0.02773   0.31252   0.23333   1.000
    O531    O    0.27756   0.18797   0.23350   1.000
    O532    O    0.77778   0.31259   0.26680   1.000
    O533    O    0.72226   0.25154   0.29039   1.000
    O534    O    0.79614   0.22812   0.30125   1.000
    O535    O    0.27619   0.31344   0.26673   1.000
    O536    O    0.22181   0.25182   0.29053   1.000
    O537    O    0.29595   0.22981   0.30130   1.000
    O538    O    0.52756   0.18779   0.26699   1.000
    O539    O    0.47226   0.24997   0.29050   1.000
    O540    O    0.54626   0.27212   0.30131   1.000
    O541    O    0.02769   0.18735   0.26690   1.000
    O542    O    0.97214   0.24835   0.29048   1.000
    O543    O    0.04597   0.27183   0.30137   1.000
    O544    O    0.28132   0.39406   0.31309   1.000
    O545    O    0.78359   0.39312   0.31312   1.000
    O546    O    0.03352   0.10685   0.31320   1.000
    O547    O    0.53317   0.10726   0.31344   1.000
    O548    O    0.70391   0.44883   0.33279   1.000
    O549    O    0.95385   0.05124   0.33284   1.000
    O550    O    0.45335   0.05203   0.33331   1.000
    O551    O    0.20174   0.44926   0.33415   1.000
    O552    O    0.65605   0.26727   0.35061   1.000
    O553    O    0.90587   0.23266   0.35069   1.000
    O554    O    0.40603   0.23525   0.35074   1.000
    O555    O    0.15561   0.26712   0.35089   1.000
    O556    O    0.74993   0.43028   0.34810   1.000
    O557    O    0.80226   0.41030   0.36727   1.000
    O558    O    0.99987   0.06973   0.34815   1.000
    O559    O    0.05218   0.08969   0.36734   1.000
    O560    O    0.24807   0.43095   0.34868   1.000
    O561    O    0.30078   0.41125   0.36695   1.000
    O562    O    0.49950   0.07028   0.34848   1.000
    O563    O    0.55196   0.08996   0.36751   1.000
    O564    O    0.85481   0.21238   0.36152   1.000
    O565    O    0.60503   0.28766   0.36151   1.000
    O566    O    0.35499   0.21493   0.36157   1.000
    O567    O    0.10458   0.28753   0.36168   1.000
    O568    O    0.71548   0.46700   0.38371   1.000
    O569    O    0.96543   0.03302   0.38375   1.000
    O570    O    0.46504   0.03369   0.38416   1.000
    O571    O    0.21398   0.46732   0.38495   1.000
    O572    O    0.64428   0.29059   0.40580   1.000
    O573    O    0.89401   0.20933   0.40584   1.000
    O574    O    0.39429   0.21143   0.40574   1.000
    O575    O    0.14375   0.29052   0.40603   1.000
    O576    O    0.80280   0.65758   0.40081   1.000
    O577    O    0.55303   0.84290   0.40090   1.000
    O578    O    0.30240   0.65694   0.40121   1.000
    O579    O    0.05423   0.84319   0.40196   1.000
    O580    O    0.34690   0.39541   0.38422   1.000
    O581    O    0.84799   0.39418   0.38533   1.000
    O582    O    0.59780   0.10583   0.38545   1.000
    O583    O    0.09789   0.10580   0.38545   1.000
    O584    O    0.32006   0.42756   0.42177   1.000
    O585    O    0.82078   0.42668   0.42234   1.000
    O586    O    0.07069   0.07328   0.42241   1.000
    O587    O    0.57060   0.07339   0.42248   1.000
    O588    O    0.68631   0.49884   0.41647   1.000
    O589    O    0.73293   0.48372   0.44089   1.000
    O590    O    0.93627   0.00117   0.41647   1.000
    O591    O    0.98288   0.01624   0.44090   1.000
    O592    O    0.43588   0.00195   0.41695   1.000
    O593    O    0.48264   0.01676   0.44123   1.000
    O594    O    0.18517   0.49887   0.41827   1.000
    O595    O    0.23220   0.48389   0.44192   1.000
    O596    O    0.38690   0.62436   0.43590   1.000
    O597    O    0.88696   0.62434   0.43592   1.000
    O598    O    0.63713   0.87608   0.43620   1.000
    O599    O    0.13807   0.87622   0.43792   1.000
    O600    O    0.84034   0.65298   0.43905   1.000
    O601    O    0.78886   0.68575   0.44680   1.000
    O602    O    0.59053   0.84743   0.43921   1.000
    O603    O    0.53907   0.81464   0.44684   1.000
    O604    O    0.34014   0.65267   0.43926   1.000
    O605    O    0.28852   0.68510   0.44722   1.000
    O606    O    0.09150   0.84747   0.44050   1.000
    O607    O    0.04004   0.81452   0.44759   1.000
    O608    O    0.73127   0.26037   0.45031   1.000
    O609    O    0.48150   0.24062   0.45028   1.000
    O610    O    0.23102   0.26126   0.45042   1.000
    O611    O    0.98099   0.23926   0.45044   1.000
    O612    O    0.43447   0.21343   0.45375   1.000
    O613    O    0.38279   0.18096   0.46150   1.000
    O614    O    0.68436   0.28788   0.45390   1.000
    O615    O    0.63283   0.32067   0.46181   1.000
    O616    O    0.93404   0.21189   0.45395   1.000
    O617    O    0.88245   0.17925   0.46176   1.000
    O618    O    0.18388   0.28823   0.45407   1.000
    O619    O    0.13209   0.32045   0.46202   1.000
    O620    O    0.49416   0.78459   0.45753   1.000
    O621    O    0.99512   0.78431   0.45778   1.000
    O622    O    0.74394   0.71578   0.45759   1.000
    O623    O    0.24349   0.71484   0.45817   1.000
    O624    O    0.87973   0.64990   0.48456   1.000
    O625    O    0.37976   0.64993   0.48452   1.000
    O626    O    0.62988   0.85043   0.48477   1.000
    O627    O    0.28555   0.46383   0.46047   1.000
    O628    O    0.33531   0.44256   0.47041   1.000
    O629    O    0.78590   0.46339   0.46036   1.000
    O630    O    0.83536   0.44175   0.47117   1.000
    O631    O    0.03583   0.03655   0.46038   1.000
    O632    O    0.08527   0.05817   0.47122   1.000
    O633    O    0.53574   0.03678   0.46055   1.000
    O634    O    0.58530   0.05816   0.47094   1.000
    O635    O    0.13057   0.85019   0.48629   1.000
    O636    O    0.33813   0.15087   0.47165   1.000
    O637    O    0.83786   0.14907   0.47198   1.000
    O638    O    0.58830   0.35098   0.47214   1.000
    O639    O    0.08731   0.35029   0.47237   1.000
    O640    O    0.47395   0.21584   0.49941   1.000
    O641    O    0.72374   0.28476   0.49961   1.000
    O642    O    0.97336   0.21489   0.49972   1.000
    O643    O    0.22332   0.28554   0.49974   1.000
    O644    O    0.52680   0.78506   0.50019   1.000
    O645    O    0.77661   0.71523   0.50022   1.000
    O646    O    0.02751   0.78445   0.50062   1.000
    O647    O    0.27637   0.71457   0.50064   1.000
    O648    O    0.00005   0.99974   0.49987   1.000
    O649    O    0.75007   0.50014   0.49991   1.000
    O650    O    0.49993   0.00008   0.50011   1.000
    O651    O    0.25011   0.50013   0.50070   1.000
    O652    O    0.37075   0.15069   0.51475   1.000
    O653    O    0.87034   0.14940   0.51516   1.000
    O654    O    0.62084   0.35054   0.51527   1.000
    O655    O    0.11988   0.35018   0.51548   1.000
    O656    O    0.91483   0.94129   0.52858   1.000
    O657    O    0.66475   0.55846   0.52868   1.000
    O658    O    0.41468   0.94173   0.52884   1.000
    O659    O    0.16489   0.55763   0.53097   1.000
    O660    O    0.41245   0.64980   0.52754   1.000
    O661    O    0.36770   0.67962   0.53804   1.000
    O662    O    0.91222   0.64950   0.52772   1.000
    O663    O    0.86759   0.67960   0.53805   1.000
    O664    O    0.66234   0.85073   0.52797   1.000
    O665    O    0.61772   0.82061   0.53818   1.000
    O666    O    0.16275   0.85026   0.52971   1.000
    O667    O    0.11814   0.81991   0.53943   1.000
    O668    O    0.96428   0.96293   0.53939   1.000
    O669    O    0.01723   0.98325   0.55883   1.000
    O670    O    0.71423   0.53686   0.53948   1.000
    O671    O    0.76722   0.51657   0.55891   1.000
    O672    O    0.46415   0.96330   0.53963   1.000
    O673    O    0.51716   0.98352   0.55905   1.000
    O674    O    0.50675   0.21581   0.54193   1.000
    O675    O    0.46181   0.18581   0.55255   1.000
    O676    O    0.75646   0.28417   0.54219   1.000
    O677    O    0.71165   0.31441   0.55297   1.000
    O678    O    0.00600   0.21539   0.54236   1.000
    O679    O    0.96113   0.18529   0.55303   1.000
    O680    O    0.25607   0.28532   0.54230   1.000
    O681    O    0.21101   0.31505   0.55311   1.000
    O682    O    0.21465   0.53640   0.54092   1.000
    O683    O    0.26803   0.51640   0.55939   1.000
    O684    O    0.56610   0.78803   0.54597   1.000
    O685    O    0.51912   0.76071   0.54948   1.000
    O686    O    0.81595   0.71216   0.54597   1.000
    O687    O    0.76896   0.73948   0.54956   1.000
    O688    O    0.31593   0.71185   0.54619   1.000
    O689    O    0.26883   0.73886   0.54998   1.000
    O690    O    0.06654   0.78713   0.54667   1.000
    O691    O    0.01960   0.75967   0.54966   1.000
    O692    O    0.92945   0.92621   0.57739   1.000
    O693    O    0.67932   0.57349   0.57753   1.000
    O694    O    0.42928   0.92664   0.57765   1.000
    O695    O    0.41028   0.15313   0.56014   1.000
    O696    O    0.36362   0.12461   0.56316   1.000
    O697    O    0.90970   0.15243   0.56068   1.000
    O698    O    0.86313   0.12373   0.56370   1.000
    O699    O    0.66028   0.34740   0.56072   1.000
    O700    O    0.61375   0.37623   0.56385   1.000
    O701    O    0.15937   0.34746   0.56090   1.000
    O702    O    0.11259   0.37577   0.56409   1.000
    O703    O    0.18012   0.57267   0.57959   1.000
    O704    O    0.85599   0.70950   0.59407   1.000
    O705    O    0.60611   0.79059   0.59411   1.000
    O706    O    0.35619   0.70951   0.59411   1.000
    O707    O    0.10620   0.78944   0.59506   1.000
    O708    O    0.44794   0.15718   0.59830   1.000
    O709    O    0.69784   0.34273   0.59892   1.000
    O710    O    0.94721   0.15701   0.59894   1.000
    O711    O    0.19700   0.34322   0.59907   1.000
    O712    O    0.31507   0.50148   0.58305   1.000
    O713    O    0.06385   0.99835   0.58324   1.000
    O714    O    0.81385   0.50149   0.58331   1.000
    O715    O    0.56382   0.99852   0.58344   1.000
    O716    O    0.03472   0.96651   0.61598   1.000
    O717    O    0.78465   0.53325   0.61611   1.000
    O718    O    0.28623   0.53301   0.61635   1.000
    O719    O    0.53465   0.96673   0.61620   1.000
    O720    O    0.90226   0.89371   0.61439   1.000
    O721    O    0.94800   0.90983   0.63245   1.000
    O722    O    0.65207   0.60591   0.61457   1.000
    O723    O    0.69782   0.58982   0.63262   1.000
    O724    O    0.40207   0.89416   0.61465   1.000
    O725    O    0.44783   0.91021   0.63270   1.000
    O726    O    0.15326   0.60483   0.61713   1.000
    O727    O    0.19938   0.58902   0.63440   1.000
    O728    O    0.39546   0.71246   0.63838   1.000
    O729    O    0.34445   0.73287   0.64928   1.000
    O730    O    0.89517   0.71238   0.63842   1.000
    O731    O    0.84411   0.73271   0.64927   1.000
    O732    O    0.64528   0.78757   0.63844   1.000
    O733    O    0.59421   0.76730   0.64924   1.000
    O734    O    0.14492   0.78665   0.63986   1.000
    O735    O    0.09405   0.76523   0.64980   1.000
    O736    O    0.00031   0.92981   0.65160   1.000
    O737    O    0.04632   0.94833   0.66654   1.000
    O738    O    0.75017   0.56988   0.65177   1.000
    O739    O    0.79621   0.55136   0.66706   1.000
    O740    O    0.50019   0.93009   0.65184   1.000
    O741    O    0.54625   0.94852   0.66711   1.000
    O742    O    0.25211   0.56937   0.65269   1.000
    O743    O    0.29846   0.55112   0.66685   1.000
    O744    O    0.45412   0.72812   0.69864   1.000
    O745    O    0.95386   0.72789   0.69875   1.000
    O746    O    0.70398   0.77185   0.69870   1.000
    O747    O    0.20419   0.77152   0.70004   1.000
    O748    O    0.96671   0.89269   0.68660   1.000
    O749    O    0.71647   0.60692   0.68680   1.000
    O750    O    0.46650   0.89306   0.68684   1.000
    O751    O    0.21880   0.60625   0.68823   1.000
    O752    O    0.52796   0.75159   0.70949   1.000
    O753    O    0.77787   0.74841   0.70954   1.000
    O754    O    0.27855   0.74841   0.70994   1.000
    O755    O    0.02777   0.75001   0.70966   1.000
    O756    O    0.97241   0.81219   0.73309   1.000
    O757    O    0.72231   0.68739   0.73315   1.000
    O758    O    0.47238   0.81259   0.73315   1.000
    O759    O    0.22417   0.68696   0.73426   1.000
    O760    O    0.47235   0.68742   0.76672   1.000
    O761    O    0.52797   0.74839   0.79045   1.000
    O762    O    0.45427   0.77199   0.80137   1.000
    O763    O    0.72230   0.81258   0.76682   1.000
    O764    O    0.77790   0.75156   0.79045   1.000
    O765    O    0.70402   0.72811   0.80125   1.000
    O766    O    0.97224   0.68714   0.76712   1.000
    O767    O    0.02782   0.74829   0.79058   1.000
    O768    O    0.95390   0.77165   0.80139   1.000
    O769    O    0.22417   0.81257   0.76742   1.000
    O770    O    0.27881   0.75101   0.79125   1.000
    O771    O    0.20448   0.72816   0.80172   1.000
    O772    O    0.46646   0.60692   0.81295   1.000
    O773    O    0.71643   0.89307   0.81312   1.000
    O774    O    0.21899   0.89339   0.81354   1.000
    O775    O    0.96639   0.60676   0.81361   1.000
    O776    O    0.54616   0.55127   0.83262   1.000
    O777    O    0.79617   0.94856   0.83290   1.000
    O778    O    0.04617   0.55141   0.83342   1.000
    O779    O    0.29862   0.94892   0.83367   1.000
    O780    O    0.84417   0.76725   0.85073   1.000
    O781    O    0.59426   0.73263   0.85072   1.000
    O782    O    0.09416   0.73289   0.85084   1.000
    O783    O    0.34497   0.76668   0.85142   1.000
    O784    O    0.50014   0.56982   0.84793   1.000
    O785    O    0.44781   0.58981   0.86709   1.000
    O786    O    0.75012   0.93010   0.84815   1.000
    O787    O    0.69777   0.91022   0.86725   1.000
    O788    O    0.25246   0.93056   0.84867   1.000
    O789    O    0.19997   0.91078   0.86748   1.000
    O790    O    0.00008   0.56979   0.84866   1.000
    O791    O    0.94769   0.58961   0.86769   1.000
    O792    O    0.64535   0.71238   0.86150   1.000
    O793    O    0.89523   0.78752   0.86161   1.000
    O794    O    0.14527   0.71267   0.86166   1.000
    O795    O    0.39588   0.78754   0.86192   1.000
    O796    O    0.53461   0.53313   0.88355   1.000
    O797    O    0.78460   0.96672   0.88384   1.000
    O798    O    0.03458   0.53325   0.88436   1.000
    O799    O    0.28673   0.96725   0.88448   1.000
    O800    O    0.60620   0.70932   0.90586   1.000
    O801    O    0.85605   0.79047   0.90593   1.000
    O802    O    0.10613   0.70963   0.90599   1.000
    O803    O    0.35685   0.79040   0.90642   1.000
    O804    O    0.69713   0.15724   0.90096   1.000
    O805    O    0.44688   0.34287   0.90102   1.000
    O806    O    0.94733   0.34287   0.90108   1.000
    O807    O    0.19748   0.15695   0.90107   1.000
    O808    O    0.15407   0.89486   0.88521   1.000
    O809    O    0.40207   0.60592   0.88514   1.000
    O810    O    0.65202   0.89418   0.88529   1.000
    O811    O    0.90188   0.60560   0.88568   1.000
    O812    O    0.42932   0.57346   0.92217   1.000
    O813    O    0.67926   0.92661   0.92234   1.000
    O814    O    0.18110   0.92733   0.92239   1.000
    O815    O    0.92914   0.57322   0.92275   1.000
    O816    O    0.56379   0.50132   0.91631   1.000
    O817    O    0.51718   0.51646   0.94074   1.000
    O818    O    0.81380   0.99848   0.91664   1.000
    O819    O    0.76715   0.98345   0.94102   1.000
    O820    O    0.06379   0.50154   0.91716   1.000
    O821    O    0.01711   0.51651   0.94150   1.000
    O822    O    0.31574   0.99906   0.91742   1.000
    O823    O    0.26894   0.98409   0.94152   1.000
    O824    O    0.11321   0.12395   0.93597   1.000
    O825    O    0.61296   0.12418   0.93603   1.000
    O826    O    0.86311   0.37593   0.93611   1.000
    O827    O    0.36280   0.37610   0.93628   1.000
    O828    O    0.65960   0.15275   0.93917   1.000
    O829    O    0.71109   0.18545   0.94692   1.000
    O830    O    0.40941   0.34742   0.93931   1.000
    O831    O    0.46088   0.31458   0.94692   1.000
    O832    O    0.15984   0.15252   0.93920   1.000
    O833    O    0.21131   0.18524   0.94702   1.000
    O834    O    0.90975   0.34735   0.93927   1.000
    O835    O    0.96126   0.31463   0.94702   1.000
    O836    O    0.76899   0.76063   0.95039   1.000
    O837    O    0.01900   0.73911   0.95055   1.000
    O838    O    0.51927   0.73929   0.95056   1.000
    O839    O    0.26985   0.76075   0.95105   1.000
    O840    O    0.56623   0.71189   0.95400   1.000
    O841    O    0.61785   0.67925   0.96175   1.000
    O842    O    0.81599   0.78788   0.95400   1.000
    O843    O    0.86765   0.82036   0.96195   1.000
    O844    O    0.06610   0.71203   0.95408   1.000
    O845    O    0.11789   0.67975   0.96196   1.000
    O846    O    0.31685   0.78803   0.95453   1.000
    O847    O    0.36849   0.82059   0.96231   1.000
    O848    O    0.50579   0.28449   0.95756   1.000
    O849    O    0.75603   0.21542   0.95764   1.000
    O850    O    0.00618   0.28463   0.95778   1.000
    O851    O    0.25621   0.21524   0.95786   1.000
    O852    O    0.46421   0.53680   0.96018   1.000
    O853    O    0.41475   0.55842   0.97099   1.000
    O854    O    0.71415   0.96322   0.96042   1.000
    O855    O    0.66468   0.94168   0.97119   1.000
    O856    O    0.21580   0.96396   0.96061   1.000
    O857    O    0.16621   0.94256   0.97107   1.000
    O858    O    0.96407   0.53667   0.96086   1.000
    O859    O    0.91453   0.55812   0.97157   1.000
    O860    O    0.66248   0.64907   0.97194   1.000
    O861    O    0.16266   0.64989   0.97221   1.000
    O862    O    0.91231   0.85038   0.97230   1.000
    O863    O    0.41313   0.85071   0.97248   1.000
loop_
    _geom_bond_atom_site_label_1
    _geom_bond_atom_site_label_2
    _geom_bond_distance
    _geom_bond_site_symmetry_2
    _ccdc_geom_bond_type
    C48    O408      0.62533      .   S
    C208   O408      0.62533      .   S
    C103   O409      0.61500      .   S
    C281   O409      0.61500      .   S
    C102   O410      0.62139      .   S
    C280   O410      0.62139      .   S
    C49    O411      0.61805      .   S
    C209   O411      0.61805      .   S
    C204   O412      0.54484      .   S
    C46    O412      0.54484      .   S
    C204   O413      0.70283      .   S
    C200   O413      0.70283      .   S
    C204   O414      0.69547  1_554   S
    C214   O414      0.69547      .   S
    C205   O415      0.54453      .   S
    C47    O415      0.54453      .   S
    C205   O416      0.70236      .   S
    C201   O416      0.70236      .   S
    C205   O417      0.69630  1_554   S
    C215   O417      0.69630      .   S
    C277   O418      0.54455      .   S
    C101   O418      0.54455      .   S
    C277   O419      0.70239      .   S
    C273   O419      0.70239      .   S
    C277   O420      0.69617  1_554   S
    C287   O420      0.69617      .   S
    C276   O421      0.54456      .   S
    C100   O421      0.54456      .   S
    C276   O422      0.70235      .   S
    C272   O422      0.70235      .   S
    C276   O423      0.69619  1_554   S
    C286   O423      0.69619      .   S
    C279   O424      0.71580      .   S
    C281   O424      0.71580      .   S
    C279   O425      0.71548      .   S
    C282   O425      0.71548      .   S
    C279   O426      0.71518  1_554   S
    C182   O426      0.71518      .   S
    C207   O427      0.71587      .   S
    C209   O427      0.71587      .   S
    C207   O428      0.71571      .   S
    C211   O428      0.71571      .   S
    C207   O429      0.71503  1_544   S
    C303   O429      0.71503      .   S
    C206   O430      0.71580      .   S
    C208   O430      0.71580      .   S
    C206   O431      0.71548      .   S
    C210   O431      0.71548      .   S
    C206   O432      0.71524      .   S
    C302   O432      0.71524  1_566   S
    C278   O433      0.71579      .   S
    C280   O433      0.71579      .   S
    C278   O434      0.71538  1_455   S
    C283   O434      0.71538      .   S
    C278   O435      0.71510  1_455   S
    C183   O435      0.71510  1_556   S
    C317   O436      0.54521      .   S
    C133   O436      0.54521      .   S
    C317   O437      0.69843      .   S
    C315   O437      0.69843      .   S
    C317   O438      0.69774  1_554   S
    C309   O438      0.69774      .   S
    C197   O439      0.54519      .   S
    C42    O439      0.54519      .   S
    C197   O440      0.69619      .   S
    C195   O440      0.69619      .   S
    C197   O441      0.69761  1_554   S
    C189   O441      0.69761      .   S
    C196   O442      0.54500  1_455   S
    C43    O442      0.54500      .   S
    C196   O443      0.69843      .   S
    C194   O443      0.69843      .   S
    C196   O444      0.69825  1_554   S
    C188   O444      0.69825      .   S
    C284   O445      0.70080      .   S
    C272   O445      0.70080      .   S
    C284   O446      0.54464      .   S
    C106   O446      0.54464      .   S
    C284   O447      0.69763      .   S
    C292   O447      0.69763  1_556   S
    C316   O448      0.54521      .   S
    C132   O448      0.54521      .   S
    C316   O449      0.69850      .   S
    C314   O449      0.69850      .   S
    C316   O450      0.69756      .   S
    C308   O450      0.69756  1_556   S
    C213   O451      0.70080      .   S
    C201   O451      0.70080      .   S
    C213   O452      0.54461      .   S
    C53    O452      0.54461      .   S
    C213   O453      0.69759      .   S
    C221   O453      0.69759  1_556   S
    C285   O454      0.70103      .   S
    C273   O454      0.70103      .   S
    C285   O455      0.54454      .   S
    C107   O455      0.54454      .   S
    C285   O456      0.69698      .   S
    C293   O456      0.69698  1_556   S
    C212   O457      0.70082      .   S
    C200   O457      0.70082      .   S
    C212   O458      0.54459      .   S
    C52    O458      0.54459      .   S
    C212   O459      0.69777      .   S
    C220   O459      0.69777  1_556   S
    C281   O460      0.68485      .   S
    C289   O460      0.68485      .   S
    C209   O461      0.68489      .   S
    C217   O461      0.68489      .   S
    C280   O462      0.68481      .   S
    C288   O462      0.68481      .   S
    C191   O463      0.69812      .   S
    C195   O463      0.69812      .   S
    C191   O464      0.54514      .   S
    C37    O464      0.54514      .   S
    C191   O465      0.69637      .   S
    C181   O465      0.69637  1_556   S
    C208   O466      0.68489      .   S
    C216   O466      0.68489      .   S
    C190   O467      0.69953      .   S
    C194   O467      0.69953      .   S
    C190   O468      0.54524      .   S
    C36    O468      0.54524      .   S
    C190   O469      0.69619      .   S
    C180   O469      0.69619  1_556   S
    C311   O470      0.69951      .   S
    C315   O470      0.69951      .   S
    C311   O471      0.54522      .   S
    C127   O471      0.54522      .   S
    C311   O472      0.69627      .   S
    C301   O472      0.69627  1_556   S
    C310   O473      0.69956      .   S
    C314   O473      0.69956      .   S
    C310   O474      0.54528      .   S
    C126   O474      0.54528      .   S
    C310   O475      0.69617      .   S
    C300   O475      0.69617  1_556   S
    C200   O476      0.74677      .   S
    C222   O476      0.74677      .   S
    C201   O477      0.74690      .   S
    C223   O477      0.74690      .   S
    C273   O478      0.74683      .   S
    C295   O478      0.74683      .   S
    C272   O479      0.74685      .   S
    C294   O479      0.74685      .   S
    C195   O480      0.54897      .   S
    C41    O480      0.54897      .   S
    C315   O481      0.54536      .   S
    C131   O481      0.54536      .   S
    C194   O482      0.54533      .   S
    C40    O482      0.54533      .   S
    C314   O483      0.54523      .   S
    C130   O483      0.54523      .   S
    C50    O484      0.54389  1_565   S
    C210   O484      0.54389      .   S
    C104   O485      0.54382      .   S
    C282   O485      0.54382      .   S
    C51    O486      0.54391  1_565   S
    C211   O486      0.54391      .   S
    C105   O487      0.54383      .   S
    C283   O487      0.54383      .   S
    C282   O488      0.68484      .   S
    C274   O488      0.68484      .   S
    C211   O489      0.68487      .   S
    C203   O489      0.68487      .   S
    C210   O490      0.68471      .   S
    C202   O490      0.68471      .   S
    C283   O491      0.68434      .   S
    C275   O491      0.68434      .   S
    C289   O492      0.54328      .   S
    C111   O492      0.54328      .   S
    C289   O493      0.68666      .   S
    C355   O493      0.68666      .   S
    C217   O494      0.54330      .   S
    C57    O494      0.54330      .   S
    C217   O495      0.68665      .   S
    C349   O495      0.68665      .   S
    C288   O496      0.54331      .   S
    C110   O496      0.54331      .   S
    C288   O497      0.68667      .   S
    C354   O497      0.68667      .   S
    C216   O498      0.54329      .   S
    C56    O498      0.54329      .   S
    C216   O499      0.68668      .   S
    C348   O499      0.68668      .   S
    C222   O500      0.63686      .   S
    C376   O500      0.63686      .   S
    C222   O501      0.64078      .   S
    C374   O501      0.64078      .   S
    C295   O502      0.63696      .   S
    C395   O502      0.63696      .   S
    C295   O503      0.64061      .   S
    C393   O503      0.64061      .   S
    C223   O504      0.63692      .   S
    C377   O504      0.63692      .   S
    C223   O505      0.64078      .   S
    C375   O505      0.64078      .   S
    C294   O506      0.63699      .   S
    C394   O506      0.63699      .   S
    C294   O507      0.64075      .   S
    C392   O507      0.64075      .   S
    C274   O508      0.68659      .   S
    C355   O508      0.68659      .   S
    C274   O509      0.54315      .   S
    C98    O509      0.54315      .   S
    C203   O510      0.68661      .   S
    C349   O510      0.68661      .   S
    C203   O511      0.54338      .   S
    C45    O511      0.54338      .   S
    C202   O512      0.68662      .   S
    C348   O512      0.68662      .   S
    C202   O513      0.54341      .   S
    C44    O513      0.54341      .   S
    C275   O514      0.68652      .   S
    C354   O514      0.68652  1_455   S
    C275   O515      0.54383      .   S
    C99    O515      0.54383      .   S
    C376   O516      1.24247      .   S
    C4     O516      1.24247      .   S
    C395   O517      1.24177      .   S
    C3     O517      1.24177      .   S
    C377   O518      1.24235      .   S
    C5     O518      1.24235      .   S
    C394   O519      1.24139      .   S
    C2     O519      1.24139      .   S
    C355   O520      0.67465      .   S
    C391   O520      0.67465      .   S
    C349   O521      0.67470      .   S
    C373   O521      0.67470      .   S
    C354   O522      0.67456      .   S
    C390   O522      0.67456      .   S
    C348   O523      0.67463      .   S
    C372   O523      0.67463      .   S
    C374   O524      1.21393      .   S
    C2     O524      1.21393      .   S
    C393   O525      1.21501      .   S
    C4     O525      1.21501  1_455   S
    C392   O526      1.21529      .   S
    C5     O526      1.21529      .   S
    C375   O527      1.21501      .   S
    C3     O527      1.21501      .   S
    C391   O528      1.18850      .   S
    C5     O528      1.18850      .   S
    C373   O529      1.18926      .   S
    C3     O529      1.18926      .   S
    C390   O530      1.18939      .   S
    C4     O530      1.18939      .   S
    C372   O531      1.19053      .   S
    C2     O531      1.19053      .   S
    C3     O532      1.18919      .   S
    C379   O532      1.18919      .   S
    C3     O533      1.21453      .   S
    C381   O533      1.21453      .   S
    C3     O534      1.24169      .   S
    C389   O534      1.24169      .   S
    C2     O535      1.18752      .   S
    C378   O535      1.18752      .   S
    C2     O536      1.21518      .   S
    C380   O536      1.21518      .   S
    C2     O537      1.23987      .   S
    C388   O537      1.23987      .   S
    C5     O538      1.18925      .   S
    C385   O538      1.18925      .   S
    C5     O539      1.21532      .   S
    C386   O539      1.21532      .   S
    C5     O540      1.24172      .   S
    C383   O540      1.24172      .   S
    C4     O541      1.18874      .   S
    C384   O541      1.18874      .   S
    C4     O542      1.21457  1_455   S
    C387   O542      1.21457      .   S
    C4     O543      1.24138      .   S
    C382   O543      1.24138      .   S
    C378   O544      0.67487      .   S
    C350   O544      0.67487      .   S
    C379   O545      0.67468      .   S
    C351   O545      0.67468      .   S
    C384   O546      0.67466      .   S
    C352   O546      0.67466      .   S
    C385   O547      0.67466      .   S
    C353   O547      0.67466      .   S
    C63    O548      0.54342      .   S
    C227   O548      0.54342      .   S
    C81    O549      0.54336      .   S
    C251   O549      0.54336      .   S
    C80    O550      0.54340      .   S
    C250   O550      0.54340      .   S
    C62    O551      0.54339      .   S
    C226   O551      0.54339      .   S
    C381   O552      0.64022      .   S
    C247   O552      0.64022      .   S
    C387   O553      0.64078      .   S
    C271   O553      0.64078      .   S
    C386   O554      0.64078      .   S
    C270   O554      0.64078      .   S
    C380   O555      0.64072      .   S
    C246   O555      0.64072      .   S
    C351   O556      0.68660      .   S
    C227   O556      0.68660      .   S
    C351   O557      0.68662      .   S
    C241   O557      0.68662      .   S
    C352   O558      0.68646  1_455   S
    C251   O558      0.68646      .   S
    C352   O559      0.68671      .   S
    C264   O559      0.68671      .   S
    C350   O560      0.68658      .   S
    C226   O560      0.68658      .   S
    C350   O561      0.68674      .   S
    C240   O561      0.68674      .   S
    C353   O562      0.68658      .   S
    C250   O562      0.68658      .   S
    C353   O563      0.68663      .   S
    C265   O563      0.68663      .   S
    C389   O564      0.63694      .   S
    C271   O564      0.63694      .   S
    C383   O565      0.63669      .   S
    C247   O565      0.63669      .   S
    C388   O566      0.63692      .   S
    C270   O566      0.63692      .   S
    C382   O567      0.63698      .   S
    C246   O567      0.63698      .   S
    C227   O568      0.68444      .   S
    C235   O568      0.68444      .   S
    C251   O569      0.68485      .   S
    C259   O569      0.68485      .   S
    C250   O570      0.68478      .   S
    C258   O570      0.68478      .   S
    C226   O571      0.68483      .   S
    C234   O571      0.68483      .   S
    C247   O572      0.74769      .   S
    C225   O572      0.74769      .   S
    C271   O573      0.74688      .   S
    C249   O573      0.74688      .   S
    C270   O574      0.74672      .   S
    C248   O574      0.74672      .   S
    C246   O575      0.74685      .   S
    C224   O575      0.74685      .   S
    C149   O576      0.54484      .   S
    C339   O576      0.54484      .   S
    C23    O577      0.54529      .   S
    C171   O577      0.54529      .   S
    C148   O578      0.54526      .   S
    C338   O578      0.54526      .   S
    C22    O579      0.54529      .   S
    C170   O579      0.54529      .   S
    C74    O580      0.54330      .   S
    C240   O580      0.54330      .   S
    C75    O581      0.54330      .   S
    C241   O581      0.54330      .   S
    C93    O582      0.54328      .   S
    C265   O582      0.54328      .   S
    C92    O583      0.54330      .   S
    C264   O583      0.54330      .   S
    C240   O584      0.68479      .   S
    C232   O584      0.68479      .   S
    C241   O585      0.68488      .   S
    C233   O585      0.68488      .   S
    C264   O586      0.68478      .   S
    C256   O586      0.68478      .   S
    C265   O587      0.68489      .   S
    C257   O587      0.68489      .   S
    C235   O588      0.54388      .   S
    C69    O588      0.54388      .   S
    C235   O589      0.71586      .   S
    C231   O589      0.71586      .   S
    C259   O590      0.54392      .   S
    C87    O590      0.54392  1_565   S
    C259   O591      0.71535      .   S
    C254   O591      0.71535  1_455   S
    C258   O592      0.54390      .   S
    C86    O592      0.54390  1_565   S
    C258   O593      0.71555      .   S
    C255   O593      0.71555      .   S
    C234   O594      0.54381      .   S
    C68    O594      0.54381      .   S
    C234   O595      0.71546      .   S
    C230   O595      0.71546      .   S
    C144   O596      0.54528      .   S
    C334   O596      0.54528      .   S
    C145   O597      0.54525      .   S
    C335   O597      0.54525      .   S
    C19    O598      0.54526      .   S
    C167   O598      0.54526      .   S
    C18    O599      0.54523      .   S
    C166   O599      0.54523      .   S
    C339   O600      0.69970      .   S
    C335   O600      0.69970      .   S
    C339   O601      0.69867      .   S
    C341   O601      0.69867      .   S
    C171   O602      0.69978      .   S
    C167   O602      0.69978      .   S
    C171   O603      0.69880      .   S
    C173   O603      0.69880      .   S
    C338   O604      0.69953      .   S
    C334   O604      0.69953      .   S
    C338   O605      0.69844      .   S
    C340   O605      0.69844      .   S
    C170   O606      0.69951      .   S
    C166   O606      0.69951      .   S
    C170   O607      0.69848      .   S
    C172   O607      0.69848      .   S
    C71    O608      0.54456      .   S
    C237   O608      0.54456      .   S
    C88    O609      0.54459      .   S
    C260   O609      0.54459      .   S
    C70    O610      0.54456      .   S
    C236   O610      0.54456      .   S
    C89    O611      0.54459      .   S
    C261   O611      0.54459      .   S
    C248   O612      0.70083      .   S
    C260   O612      0.70083      .   S
    C248   O613      0.70248      .   S
    C252   O613      0.70248      .   S
    C225   O614      0.70078      .   S
    C237   O614      0.70078      .   S
    C225   O615      0.70237      .   S
    C229   O615      0.70237      .   S
    C249   O616      0.70074      .   S
    C261   O616      0.70074      .   S
    C249   O617      0.70235      .   S
    C253   O617      0.70235      .   S
    C224   O618      0.70077      .   S
    C236   O618      0.70077      .   S
    C224   O619      0.70236      .   S
    C228   O619      0.70236      .   S
    C24    O620      0.54521      .   S
    C173   O620      0.54521      .   S
    C25    O621      0.54504      .   S
    C172   O621      0.54504  1_455   S
    C151   O622      0.54520      .   S
    C341   O622      0.54520      .   S
    C150   O623      0.54518      .   S
    C340   O623      0.54518      .   S
    C335   O624      0.69616      .   S
    C325   O624      0.69616      .   S
    C334   O625      0.69565      .   S
    C324   O625      0.69565      .   S
    C167   O626      0.69614      .   S
    C157   O626      0.69614      .   S
    C232   O627      0.71575      .   S
    C230   O627      0.71575      .   S
    C232   O628      0.54394      .   S
    C66    O628      0.54394      .   S
    C233   O629      0.71581      .   S
    C231   O629      0.71581      .   S
    C233   O630      0.54394      .   S
    C67    O630      0.54394      .   S
    C256   O631      0.71584      .   S
    C254   O631      0.71584      .   S
    C256   O632      0.54392      .   S
    C84    O632      0.54392      .   S
    C257   O633      0.71582      .   S
    C255   O633      0.71582      .   S
    C257   O634      0.54001      .   S
    C85    O634      0.54001      .   S
    C166   O635      0.69626      .   S
    C156   O635      0.69626      .   S
    C82    O636      0.54471      .   S
    C252   O636      0.54471      .   S
    C83    O637      0.54454      .   S
    C253   O637      0.54454      .   S
    C65    O638      0.54453      .   S
    C229   O638      0.54453      .   S
    C64    O639      0.54453      .   S
    C228   O639      0.54453      .   S
    C260   O640      0.69759      .   S
    C268   O640      0.69759      .   S
    C237   O641      0.69760      .   S
    C245   O641      0.69760      .   S
    C261   O642      0.69757      .   S
    C269   O642      0.69757      .   S
    C236   O643      0.69759      .   S
    C244   O643      0.69759      .   S
    C173   O644      0.69759      .   S
    C165   O644      0.69759      .   S
    C341   O645      0.69765      .   S
    C333   O645      0.69765      .   S
    C172   O646      0.69752      .   S
    C164   O646      0.69752      .   S
    C340   O647      0.69757      .   S
    C332   O647      0.69757      .   S
    C254   O648      0.71514  1_545   S
    C159   O648      0.71514  1_655   S
    C231   O649      0.71525      .   S
    C327   O649      0.71525      .   S
    C255   O650      0.71519      .   S
    C158   O650      0.71519  1_565   S
    C230   O651      0.71508      .   S
    C326   O651      0.71508      .   S
    C252   O652      0.69621      .   S
    C262   O652      0.69621      .   S
    C253   O653      0.69613      .   S
    C263   O653      0.69613      .   S
    C229   O654      0.69620      .   S
    C239   O654      0.69620      .   S
    C228   O655      0.69614      .   S
    C238   O655      0.69614      .   S
    C13    O656      0.54400      .   S
    C161   O656      0.54400      .   S
    C139   O657      0.54392      .   S
    C329   O657      0.54392      .   S
    C12    O658      0.54396      .   S
    C160   O658      0.54396      .   S
    C138   O659      0.54396      .   S
    C328   O659      0.54396      .   S
    C324   O660      0.54473      .   S
    C136   O660      0.54473      .   S
    C324   O661      0.70266      .   S
    C320   O661      0.70266      .   S
    C325   O662      0.54454      .   S
    C137   O662      0.54454      .   S
    C325   O663      0.70239      .   S
    C321   O663      0.70239      .   S
    C157   O664      0.54454      .   S
    C11    O664      0.54454      .   S
    C157   O665      0.70236      .   S
    C153   O665      0.70236      .   S
    C156   O666      0.54450      .   S
    C10    O666      0.54450      .   S
    C156   O667      0.70231      .   S
    C152   O667      0.70231      .   S
    C159   O668      0.71584      .   S
    C161   O668      0.71584      .   S
    C159   O669      0.71539  1_655   S
    C162   O669      0.71539      .   S
    C327   O670      0.71580      .   S
    C329   O670      0.71580      .   S
    C327   O671      0.71546      .   S
    C331   O671      0.71546      .   S
    C158   O672      0.71585      .   S
    C160   O672      0.71585      .   S
    C158   O673      0.71550      .   S
    C163   O673      0.71550      .   S
    C268   O674      0.54520      .   S
    C97    O674      0.54520      .   S
    C268   O675      0.69845      .   S
    C266   O675      0.69845      .   S
    C245   O676      0.54520      .   S
    C79    O676      0.54520      .   S
    C245   O677      0.69846      .   S
    C243   O677      0.69846      .   S
    C269   O678      0.54500  1_655   S
    C96    O678      0.54500      .   S
    C269   O679      0.69846      .   S
    C267   O679      0.69846      .   S
    C244   O680      0.54520      .   S
    C78    O680      0.54520      .   S
    C244   O681      0.69842      .   S
    C242   O681      0.69842      .   S
    C326   O682      0.71578      .   S
    C328   O682      0.71578      .   S
    C326   O683      0.71408      .   S
    C330   O683      0.71408      .   S
    C165   O684      0.70078      .   S
    C153   O684      0.70078      .   S
    C165   O685      0.54462      .   S
    C17    O685      0.54462      .   S
    C333   O686      0.70078      .   S
    C321   O686      0.70078      .   S
    C333   O687      0.54458      .   S
    C143   O687      0.54458      .   S
    C332   O688      0.70075      .   S
    C320   O688      0.70075      .   S
    C332   O689      0.54455      .   S
    C142   O689      0.54455      .   S
    C164   O690      0.70085      .   S
    C152   O690      0.70085      .   S
    C164   O691      0.54420      .   S
    C16    O691      0.54420      .   S
    C161   O692      0.68485      .   S
    C169   O692      0.68485      .   S
    C329   O693      0.68492      .   S
    C337   O693      0.68492      .   S
    C160   O694      0.68485      .   S
    C168   O694      0.68485      .   S
    C262   O695      0.69954      .   S
    C266   O695      0.69954      .   S
    C262   O696      0.54525      .   S
    C90    O696      0.54525      .   S
    C263   O697      0.69956      .   S
    C267   O697      0.69956      .   S
    C263   O698      0.54490      .   S
    C91    O698      0.54490      .   S
    C239   O699      0.69953      .   S
    C243   O699      0.69953      .   S
    C239   O700      0.54503      .   S
    C73    O700      0.54503      .   S
    C238   O701      0.69954      .   S
    C242   O701      0.69954      .   S
    C238   O702      0.54524      .   S
    C72    O702      0.54524      .   S
    C328   O703      0.68475      .   S
    C336   O703      0.68475      .   S
    C321   O704      0.74690      .   S
    C343   O704      0.74690      .   S
    C153   O705      0.74682      .   S
    C175   O705      0.74682      .   S
    C320   O706      0.74685      .   S
    C342   O706      0.74685      .   S
    C152   O707      0.74607      .   S
    C174   O707      0.74607      .   S
    C266   O708      0.54524      .   S
    C94    O708      0.54524      .   S
    C243   O709      0.54524      .   S
    C77    O709      0.54524      .   S
    C267   O710      0.54524      .   S
    C95    O710      0.54524      .   S
    C242   O711      0.54528      .   S
    C76    O711      0.54528      .   S
    C140   O712      0.54361      .   S
    C330   O712      0.54361      .   S
    C14    O713      0.54389  1_545   S
    C162   O713      0.54389      .   S
    C141   O714      0.54384      .   S
    C331   O714      0.54384      .   S
    C15    O715      0.54391  1_545   S
    C163   O715      0.54391      .   S
    C162   O716      0.68475      .   S
    C154   O716      0.68475      .   S
    C331   O717      0.68483      .   S
    C323   O717      0.68483      .   S
    C330   O718      0.68652      .   S
    C322   O718      0.68652      .   S
    C163   O719      0.68489      .   S
    C155   O719      0.68489      .   S
    C169   O720      0.54329      .   S
    C21    O720      0.54329      .   S
    C169   O721      0.68668      .   S
    C345   O721      0.68668      .   S
    C337   O722      0.54330      .   S
    C147   O722      0.54330      .   S
    C337   O723      0.68659      .   S
    C359   O723      0.68659      .   S
    C168   O724      0.54328      .   S
    C20    O724      0.54328      .   S
    C168   O725      0.68659      .   S
    C344   O725      0.68659      .   S
    C336   O726      0.54334      .   S
    C146   O726      0.54334      .   S
    C336   O727      0.68664      .   S
    C358   O727      0.68664      .   S
    C342   O728      0.63687      .   S
    C406   O728      0.63687      .   S
    C342   O729      0.64075      .   S
    C404   O729      0.64075      .   S
    C343   O730      0.63685      .   S
    C407   O730      0.63685      .   S
    C343   O731      0.64080      .   S
    C405   O731      0.64080      .   S
    C175   O732      0.63690      .   S
    C365   O732      0.63690      .   S
    C175   O733      0.64046      .   S
    C363   O733      0.64046      .   S
    C174   O734      0.63721      .   S
    C364   O734      0.63721      .   S
    C174   O735      0.64125      .   S
    C362   O735      0.64125      .   S
    C154   O736      0.68643      .   S
    C345   O736      0.68643  1_655   S
    C154   O737      0.53814      .   S
    C8     O737      0.53814      .   S
    C323   O738      0.68661      .   S
    C359   O738      0.68661      .   S
    C323   O739      0.54342      .   S
    C135   O739      0.54342      .   S
    C155   O740      0.68664      .   S
    C344   O740      0.68664      .   S
    C155   O741      0.54334      .   S
    C9     O741      0.54334      .   S
    C322   O742      0.68658      .   S
    C358   O742      0.68658      .   S
    C322   O743      0.53753      .   S
    C134   O743      0.53753      .   S
    C406   O744      1.24193      .   S
    C0     O744      1.24193      .   S
    C407   O745      1.24195      .   S
    C1     O745      1.24195      .   S
    C365   O746      1.24164      .   S
    C7     O746      1.24164      .   S
    C364   O747      1.23932      .   S
    C6     O747      1.23932      .   S
    C345   O748      0.67458      .   S
    C361   O748      0.67458      .   S
    C359   O749      0.67474      .   S
    C403   O749      0.67474      .   S
    C344   O750      0.67471      .   S
    C360   O750      0.67471      .   S
    C358   O751      0.67444      .   S
    C402   O751      0.67444      .   S
    C363   O752      1.21503      .   S
    C0     O752      1.21503      .   S
    C405   O753      1.21448      .   S
    C7     O753      1.21448      .   S
    C404   O754      1.21458      .   S
    C6     O754      1.21458      .   S
    C362   O755      1.21449      .   S
    C1     O755      1.21449  1_655   S
    C361   O756      1.18943      .   S
    C1     O756      1.18943      .   S
    C403   O757      1.18940      .   S
    C7     O757      1.18940      .   S
    C360   O758      1.18922      .   S
    C0     O758      1.18922      .   S
    C402   O759      1.18816      .   S
    C6     O759      1.18816      .   S
    C0     O760      1.18934      .   S
    C366   O760      1.18934      .   S
    C0     O761      1.21489      .   S
    C369   O761      1.21489      .   S
    C0     O762      1.24211      .   S
    C400   O762      1.24211      .   S
    C7     O763      1.18926      .   S
    C397   O763      1.18926      .   S
    C7     O764      1.21479      .   S
    C399   O764      1.21479      .   S
    C7     O765      1.24110      .   S
    C371   O765      1.24110      .   S
    C1     O766      1.18855      .   S
    C367   O766      1.18855      .   S
    C1     O767      1.21529  1_655   S
    C368   O767      1.21529      .   S
    C1     O768      1.24201      .   S
    C401   O768      1.24201      .   S
    C6     O769      1.18862      .   S
    C396   O769      1.18862      .   S
    C6     O770      1.21399      .   S
    C398   O770      1.21399      .   S
    C6     O771      1.24030      .   S
    C370   O771      1.24030      .   S
    C366   O772      0.67466      .   S
    C346   O772      0.67466      .   S
    C397   O773      0.67450      .   S
    C357   O773      0.67450      .   S
    C396   O774      0.67448      .   S
    C356   O774      0.67448      .   S
    C367   O775      0.67466      .   S
    C347   O775      0.67466      .   S
    C27    O776      0.54344      .   S
    C179   O776      0.54344      .   S
    C117   O777      0.54345      .   S
    C299   O777      0.54345      .   S
    C26    O778      0.54377      .   S
    C178   O778      0.54377      .   S
    C116   O779      0.54341      .   S
    C298   O779      0.54341      .   S
    C399   O780      0.64084      .   S
    C319   O780      0.64084      .   S
    C369   O781      0.64078      .   S
    C199   O781      0.64078      .   S
    C368   O782      0.64073      .   S
    C198   O782      0.64073      .   S
    C398   O783      0.64072      .   S
    C318   O783      0.64072      .   S
    C346   O784      0.68661      .   S
    C179   O784      0.68661      .   S
    C346   O785      0.68664      .   S
    C192   O785      0.68664      .   S
    C357   O786      0.68665      .   S
    C299   O786      0.68665      .   S
    C357   O787      0.68649      .   S
    C313   O787      0.68649      .   S
    C356   O788      0.68660      .   S
    C298   O788      0.68660      .   S
    C356   O789      0.68666      .   S
    C312   O789      0.68666      .   S
    C347   O790      0.68640  1_655   S
    C178   O790      0.68640      .   S
    C347   O791      0.68619      .   S
    C193   O791      0.68619      .   S
    C371   O792      0.63709      .   S
    C199   O792      0.63709      .   S
    C401   O793      0.63691      .   S
    C319   O793      0.63691      .   S
    C370   O794      0.63700      .   S
    C198   O794      0.63700      .   S
    C400   O795      0.63674      .   S
    C318   O795      0.63674      .   S
    C179   O796      0.68481      .   S
    C187   O796      0.68481      .   S
    C299   O797      0.68481      .   S
    C307   O797      0.68481      .   S
    C178   O798      0.68478      .   S
    C186   O798      0.68478      .   S
    C298   O799      0.68486      .   S
    C306   O799      0.68486      .   S
    C199   O800      0.74658      .   S
    C177   O800      0.74658      .   S
    C319   O801      0.74687      .   S
    C297   O801      0.74687      .   S
    C198   O802      0.74684      .   S
    C176   O802      0.74684      .   S
    C318   O803      0.74674      .   S
    C296   O803      0.74674      .   S
    C59    O804      0.54523      .   S
    C219   O804      0.54523      .   S
    C112   O805      0.54529      .   S
    C290   O805      0.54529      .   S
    C113   O806      0.54529      .   S
    C291   O806      0.54529      .   S
    C58    O807      0.54532      .   S
    C218   O807      0.54532      .   S
    C128   O808      0.54330      .   S
    C312   O808      0.54330      .   S
    C38    O809      0.54330      .   S
    C192   O809      0.54330      .   S
    C129   O810      0.54320      .   S
    C313   O810      0.54320      .   S
    C39    O811      0.54314      .   S
    C193   O811      0.54314      .   S
    C192   O812      0.68487      .   S
    C184   O812      0.68487      .   S
    C313   O813      0.68528      .   S
    C305   O813      0.68528      .   S
    C312   O814      0.68480      .   S
    C304   O814      0.68480      .   S
    C193   O815      0.68547      .   S
    C185   O815      0.68547      .   S
    C187   O816      0.54383      .   S
    C33    O816      0.54383      .   S
    C187   O817      0.71550      .   S
    C182   O817      0.71550      .   S
    C307   O818      0.54392      .   S
    C123   O818      0.54392  1_545   S
    C307   O819      0.71549      .   S
    C303   O819      0.71549      .   S
    C186   O820      0.54381      .   S
    C32    O820      0.54381      .   S
    C186   O821      0.71530      .   S
    C183   O821      0.71530  1_655   S
    C306   O822      0.54391      .   S
    C122   O822      0.54391  1_545   S
    C306   O823      0.71548      .   S
    C302   O823      0.71548      .   S
    C54    O824      0.54523      .   S
    C214   O824      0.54523      .   S
    C55    O825      0.54524      .   S
    C215   O825      0.54524      .   S
    C109   O826      0.54526      .   S
    C287   O826      0.54526      .   S
    C108   O827      0.54524      .   S
    C286   O827      0.54524      .   S
    C219   O828      0.69953      .   S
    C215   O828      0.69953      .   S
    C219   O829      0.69849      .   S
    C221   O829      0.69849      .   S
    C290   O830      0.69954      .   S
    C286   O830      0.69954      .   S
    C290   O831      0.69843      .   S
    C292   O831      0.69843      .   S
    C218   O832      0.69953      .   S
    C214   O832      0.69953      .   S
    C218   O833      0.69835      .   S
    C220   O833      0.69835      .   S
    C291   O834      0.69955      .   S
    C287   O834      0.69955      .   S
    C291   O835      0.69845      .   S
    C293   O835      0.69845      .   S
    C125   O836      0.54454      .   S
    C309   O836      0.54454      .   S
    C34    O837      0.54425      .   S
    C188   O837      0.54425      .   S
    C35    O838      0.54459      .   S
    C189   O838      0.54459      .   S
    C124   O839      0.54461      .   S
    C308   O839      0.54461      .   S
    C177   O840      0.70085      .   S
    C189   O840      0.70085      .   S
    C177   O841      0.70240      .   S
    C181   O841      0.70240      .   S
    C297   O842      0.70074      .   S
    C309   O842      0.70074      .   S
    C297   O843      0.70235      .   S
    C301   O843      0.70235      .   S
    C176   O844      0.70055      .   S
    C188   O844      0.70055      .   S
    C176   O845      0.70238      .   S
    C180   O845      0.70238      .   S
    C296   O846      0.70080      .   S
    C308   O846      0.70080      .   S
    C296   O847      0.70237      .   S
    C300   O847      0.70237      .   S
    C115   O848      0.54518      .   S
    C292   O848      0.54518      .   S
    C61    O849      0.54545      .   S
    C221   O849      0.54545      .   S
    C114   O850      0.54500      .   S
    C293   O850      0.54500  1_655   S
    C60    O851      0.54513      .   S
    C220   O851      0.54513      .   S
    C184   O852      0.71580      .   S
    C182   O852      0.71580      .   S
    C184   O853      0.54397      .   S
    C30    O853      0.54397      .   S
    C305   O854      0.71581      .   S
    C303   O854      0.71581      .   S
    C305   O855      0.54396      .   S
    C121   O855      0.54396      .   S
    C304   O856      0.71576      .   S
    C302   O856      0.71576      .   S
    C304   O857      0.54393      .   S
    C120   O857      0.54393      .   S
    C185   O858      0.71580      .   S
    C183   O858      0.71580      .   S
    C185   O859      0.54396      .   S
    C31    O859      0.54396      .   S
    C29    O860      0.54448      .   S
    C181   O860      0.54448      .   S
    C28    O861      0.54453      .   S
    C180   O861      0.54453      .   S
    C119   O862      0.54452      .   S
    C301   O862      0.54452      .   S
    C118   O863      0.54468      .   S
    C300   O863      0.54468      .   S
