# CIF file generated by openbabel 2.4.90, see http://openbabel.sf.net
data_I
_chemical_name_common ''
_cell_length_a 13.444
_cell_length_b 14.201
_cell_length_c 19.045
_cell_angle_alpha 90.774
_cell_angle_beta 108.294
_cell_angle_gamma 93.384
_space_group_name_H-M_alt 'P 1'
_space_group_name_Hall 'P 1'
loop_
    _symmetry_equiv_pos_as_xyz
    x,y,z
loop_
    _atom_site_label
    _atom_site_type_symbol
    _atom_site_fract_x
    _atom_site_fract_y
    _atom_site_fract_z
    _atom_site_occupancy
    H0      H    0.17522   0.43426   0.17110   1.000
    H1      H    0.87591   0.39729   0.01125   1.000
    H2      H    0.02168   0.32196   0.95319   1.000
    H3      H    0.19179   0.35051   0.94302   1.000
    H4      H    0.47988   0.22207   0.05731   1.000
    H5      H    0.27643   0.30726   0.17803   1.000
    H6      H    0.34993   0.16319   0.24178   1.000
    H7      H    0.60694   0.28127   0.17910   1.000
    H8      H    0.67950   0.20460   0.31844   1.000
    H9      H    0.20445   0.28000   0.84408   1.000
    H10     H    0.49752   0.24385   0.81352   1.000
    H11     H    0.52844   0.26211   0.96307   1.000
    H12     H    0.18172   0.47803   0.48989   1.000
    H13     H    0.24794   0.18928   0.45887   1.000
    H14     H    0.31137   0.30856   0.67958   1.000
    H15     H    0.82474   0.56572   0.82886   1.000
    H16     H    0.12406   0.60270   0.98870   1.000
    H17     H    0.97830   0.67804   0.04676   1.000
    H18     H    0.80818   0.64948   0.05693   1.000
    H19     H    0.52009   0.77791   0.94265   1.000
    H20     H    0.72354   0.69272   0.82190   1.000
    H21     H    0.65003   0.83679   0.75816   1.000
    H22     H    0.39303   0.71872   0.82086   1.000
    H23     H    0.32046   0.79537   0.68151   1.000
    H24     H    0.79552   0.71998   0.15588   1.000
    H25     H    0.50245   0.75613   0.18643   1.000
    H26     H    0.47153   0.73789   0.03688   1.000
    H27     H    0.81825   0.52194   0.51006   1.000
    H28     H    0.75204   0.81070   0.54109   1.000
    H29     H    0.68860   0.69141   0.32038   1.000
    C30     C    0.11240   0.41309   0.12090   1.000
    C31     C    0.95990   0.39310   0.03569   1.000
    C32     C    0.03050   0.35549   0.00654   1.000
    C33     C    0.22278   0.32965   0.05986   1.000
    C34     C    0.24427   0.32269   0.99300   1.000
    C35     C    0.33725   0.28373   0.99221   1.000
    C36     C    0.40838   0.25377   0.05760   1.000
    C37     C    0.38546   0.26291   0.12375   1.000
    C38     C    0.29278   0.30039   0.12584   1.000
    C39     C    0.42989   0.18555   0.24541   1.000
    C40     C    0.56582   0.24455   0.21263   1.000
    C41     C    0.60011   0.20658   0.28115   1.000
    C42     C    0.28772   0.27253   0.85418   1.000
    C43     C    0.43992   0.25237   0.84180   1.000
    C44     C    0.45713   0.26043   0.91643   1.000
    C45     C    0.24391   0.39954   0.58870   1.000
    C46     C    0.21144   0.41145   0.51224   1.000
    C47     C    0.21354   0.33503   0.46583   1.000
    C48     C    0.25093   0.24972   0.49517   1.000
    C49     C    0.28792   0.24135   0.57176   1.000
    C50     C    0.28448   0.31577   0.61960   1.000
    C51     C    0.48653   0.59436   0.51942   1.000
    C52     C    0.52064   0.52735   0.57373   1.000
    C53     C    0.53348   0.43403   0.55489   1.000
    C54     C    0.59821   0.46842   0.04393   1.000
    C55     C    0.52398   0.49649   0.07647   1.000
    C56     C    0.42742   0.52720   0.03308   1.000
    C57     C    0.09723   0.75413   0.27115   1.000
    C58     C    0.18611   0.77794   0.24990   1.000
    C59     C    0.26283   0.84648   0.28973   1.000
    C60     C    0.25325   0.89317   0.35237   1.000
    C61     C    0.16240   0.87253   0.37189   1.000
    C62     C    0.08540   0.80412   0.33169   1.000
    C63     C    0.88757   0.58689   0.87906   1.000
    C64     C    0.04007   0.60689   0.96426   1.000
    C65     C    0.96947   0.64450   0.99341   1.000
    C66     C    0.77719   0.67034   0.94010   1.000
    C67     C    0.75570   0.67730   0.00693   1.000
    C68     C    0.66272   0.71626   0.00775   1.000
    C69     C    0.59159   0.74622   0.94236   1.000
    C70     C    0.61451   0.73707   0.87620   1.000
    C71     C    0.70719   0.69960   0.87412   1.000
    C72     C    0.57008   0.81442   0.75454   1.000
    C73     C    0.43415   0.75543   0.78733   1.000
    C74     C    0.39986   0.79339   0.71880   1.000
    C75     C    0.71225   0.72745   0.14578   1.000
    C76     C    0.56005   0.74762   0.15811   1.000
    C77     C    0.54284   0.73956   0.08352   1.000
    C78     C    0.75606   0.60043   0.41126   1.000
    C79     C    0.78853   0.58853   0.48772   1.000
    C80     C    0.78643   0.66495   0.53413   1.000
    C81     C    0.74904   0.75025   0.50478   1.000
    C82     C    0.71206   0.75862   0.42820   1.000
    C83     C    0.71549   0.68420   0.38034   1.000
    C84     C    0.51337   0.40556   0.48055   1.000
    C85     C    0.47926   0.47257   0.42624   1.000
    C86     C    0.46642   0.56588   0.44500   1.000
    C87     C    0.40175   0.53157   0.95604   1.000
    C88     C    0.47598   0.50350   0.92350   1.000
    C89     C    0.57254   0.47279   0.96688   1.000
    C90     C    0.90274   0.24582   0.72883   1.000
    C91     C    0.81386   0.22200   0.75004   1.000
    C92     C    0.73715   0.15345   0.71025   1.000
    C93     C    0.74674   0.10676   0.64760   1.000
    C94     C    0.83759   0.12741   0.62809   1.000
    C95     C    0.91458   0.19582   0.66829   1.000
    Br96    Br   0.54888   0.56612   0.67538   1.000
    Br97    Br   0.57729   0.34229   0.62883   1.000
    Br98    Br   0.55754   0.49240   0.18161   1.000
    Br99    Br   0.32839   0.56609   0.07958   1.000
    Br100   Br   0.96082   0.77790   0.35876   1.000
    Br101   Br   0.14686   0.93998   0.45525   1.000
    Br102   Br   0.20171   0.71367   0.16536   1.000
    Br103   Br   0.38602   0.87644   0.26190   1.000
    Br104   Br   0.45104   0.43381   0.32458   1.000
    Br105   Br   0.42264   0.65764   0.37114   1.000
    Br106   Br   0.44242   0.50758   0.81836   1.000
    Br107   Br   0.67158   0.43391   0.92038   1.000
    Br108   Br   0.03917   0.22205   0.64123   1.000
    Br109   Br   0.85312   0.05998   0.54472   1.000
    Br110   Br   0.79825   0.28627   0.83461   1.000
    Br111   Br   0.61395   0.12349   0.73799   1.000
    N112    N    0.01158   0.42871   0.10684   1.000
    N113    N    0.12766   0.36757   0.06155   1.000
    N114    N    0.35939   0.27394   0.92468   1.000
    N115    N    0.33418   0.25934   0.80338   1.000
    N116    N    0.45675   0.23154   0.19040   1.000
    N117    N    0.51527   0.16951   0.30074   1.000
    N118    N    0.98839   0.57127   0.89311   1.000
    N119    N    0.87231   0.63241   0.93841   1.000
    N120    N    0.64058   0.72604   0.07527   1.000
    N121    N    0.66579   0.74064   0.19658   1.000
    N122    N    0.54322   0.76845   0.80956   1.000
    N123    N    0.48469   0.83045   0.69921   1.000
loop_
    _geom_bond_atom_site_label_1
    _geom_bond_atom_site_label_2
    _geom_bond_distance
    _geom_bond_site_symmetry_2
    _ccdc_geom_bond_type
    C32    C31       1.37004  1_455   S
    C32    N113      1.39381      .   S
    C32    H2        1.08527  1_554   S
    C67    C68       1.40099      .   S
    C67    H18       1.08718      .   S
    C67    C66       1.39423  1_554   S
    C68    N120      1.41487      .   S
    C68    C69       1.40039  1_554   S
    H1     C31       1.08343      .   S
    C56    C55       1.40057      .   S
    C56    Br99      1.91716      .   S
    C56    C87       1.40101  1_554   S
    C31    N112      1.38695  1_655   S
    H26    C77       1.08204      .   S
    C54    C55       1.40257      .   S
    C54    C89       1.40119  1_554   S
    H17    C65       1.08529  1_554   S
    H4     C36       1.08663      .   S
    C36    C37       1.39396      .   S
    C36    C35       1.40039  1_554   S
    C33    N113      1.42594      .   S
    C33    C38       1.39828      .   S
    C33    C34       1.39479  1_554   S
    N113   C30       1.37079      .   S
    N120   C77       1.39519      .   S
    N120   C75       1.38451      .   S
    C55    Br98      1.91195      .   S
    C77    C76       1.36776      .   S
    N112   C30       1.32942      .   S
    C30    H0        1.08309      .   S
    C37    C38       1.39495      .   S
    C37    N116      1.42490      .   S
    C38    H5        1.08762      .   S
    C75    H24       1.08668      .   S
    C75    N121      1.32275      .   S
    C76    H25       1.08474      .   S
    C76    N121      1.38996      .   S
    Br102  C58       1.91418      .   S
    H7     C40       1.08712      .   S
    N116   C40       1.39273      .   S
    N116   C39       1.37207      .   S
    C40    C41       1.37002      .   S
    H6     C39       1.08336      .   S
    C39    N117      1.32583      .   S
    C58    C57       1.40196      .   S
    C58    C59       1.39892      .   S
    Br103  C59       1.91810      .   S
    C57    C62       1.40188      .   S
    C41    N117      1.38520      .   S
    C41    H8        1.08288      .   S
    C59    C60       1.40163      .   S
    H29    C83       1.09249      .   S
    Br104  C85       1.91857      .   S
    C62    Br100     1.91915  1_455   S
    C62    C61       1.40185      .   S
    C60    C61       1.40057      .   S
    Br105  C86       1.90873      .   S
    C61    Br101     1.91626      .   S
    C83    C78       1.39769      .   S
    C83    C82       1.39853      .   S
    C78    C79       1.39853      .   S
    C85    C86       1.40232      .   S
    C85    C84       1.40213      .   S
    C82    C81       1.39459      .   S
    C86    C51       1.40585      .   S
    H13    C48       1.08573      .   S
    C47    C48       1.39510      .   S
    C47    C46       1.39753      .   S
    C84    C53       1.40442      .   S
    C79    H27       1.08790      .   S
    C79    C80       1.39754      .   S
    H12    C46       1.08798      .   S
    C48    C49       1.39477      .   S
    C81    C80       1.39515      .   S
    C81    H28       1.08585      .   S
    C46    C45       1.39853      .   S
    C51    C52       1.40211      .   S
    Br109  C94       1.91632      .   S
    C53    C52       1.40276      .   S
    C53    Br97      1.90969      .   S
    C49    C50       1.39829      .   S
    C52    Br96      1.91839      .   S
    C45    C50       1.39759      .   S
    C50    H14       1.09285      .   S
    C94    C93       1.40051      .   S
    C94    C95       1.40183      .   S
    Br108  C95       1.91911  1_455   S
    C93    C92       1.40182      .   S
    C95    C90       1.40191      .   S
    H23    C74       1.08289      .   S
    N123   C74       1.38515      .   S
    N123   C72       1.32583      .   S
    C92    Br111     1.91724      .   S
    C92    C91       1.39869      .   S
    C74    C73       1.37012      .   S
    C90    C91       1.40158      .   S
    C91    Br110     1.91479      .   S
    C72    H21       1.08339      .   S
    C72    N122      1.37214      .   S
    C73    N122      1.39275      .   S
    C73    H22       1.08706      .   S
    N115   C43       1.38977      .   S
    N115   C42       1.32275      .   S
    N122   C70       1.42477      .   S
    H10    C43       1.08420      .   S
    Br106  C88       1.91194      .   S
    H20    C71       1.08818      .   S
    H15    C63       1.08311      .   S
    C43    C44       1.36851      .   S
    H9     C42       1.08667      .   S
    C42    N114      1.38437      .   S
    C71    C70       1.39488      .   S
    C71    C66       1.39828      .   S
    C70    C69       1.39414      .   S
    C63    N118      1.32944      .   S
    C63    N119      1.37081      .   S
    N118   C64       1.38699  1_655   S
    C44    N114      1.39518      .   S
    C44    H11       1.08205      .   S
    Br107  C89       1.91717      .   S
    C88    C87       1.40259      .   S
    C88    C89       1.40052      .   S
    N114   C35       1.41505      .   S
    N119   C66       1.42593      .   S
    N119   C65       1.39375      .   S
    C69    H19       1.08663      .   S
    H3     C34       1.08693      .   S
    C64    H16       1.08344      .   S
    C64    C65       1.37003  1_455   S
    C35    C34       1.40083      .   S
