# CIF file generated by openbabel 2.4.90, see http://openbabel.sf.net
data_I
_chemical_name_common ''
_cell_length_a 13.444
_cell_length_b 14.201
_cell_length_c 19.045
_cell_angle_alpha 90.774
_cell_angle_beta 108.294
_cell_angle_gamma 93.384
_space_group_name_H-M_alt 'P 1'
_space_group_name_Hall 'P 1'
loop_
    _symmetry_equiv_pos_as_xyz
    x,y,z
loop_
    _atom_site_label
    _atom_site_type_symbol
    _atom_site_fract_x
    _atom_site_fract_y
    _atom_site_fract_z
    _atom_site_occupancy
    Lv0     Lv   0.75183   0.67456   0.45755   1.000
    Lv1     Lv   0.24814   0.32541   0.54240   1.000
    Lv2     Lv   0.31718   0.28896   0.05844   1.000
    Lv3     Lv   0.49995   0.49996   0.49998   1.000
    Lv4     Lv   0.68279   0.71102   0.94151   1.000
    Lv5     Lv   0.17426   0.82563   0.31080   1.000
    Lv6     Lv   0.49998   0.50000   0.99998   1.000
    Lv7     Lv   0.82572   0.17431   0.68917   1.000
