# CIF file generated by openbabel 2.4.90, see http://openbabel.sf.net
data_I
_chemical_name_common ''
_cell_length_a 13.444
_cell_length_b 14.201
_cell_length_c 19.045
_cell_angle_alpha 90.774
_cell_angle_beta 108.294
_cell_angle_gamma 93.384
_space_group_name_H-M_alt 'P 1'
_space_group_name_Hall 'P 1'
loop_
    _symmetry_equiv_pos_as_xyz
    x,y,z
loop_
    _atom_site_label
    _atom_site_type_symbol
    _atom_site_fract_x
    _atom_site_fract_y
    _atom_site_fract_z
    _atom_site_occupancy
    Mc0     Mc   0.79614   0.46175   0.33218   1.000
    Mc1     Mc   0.64837   0.92067   0.36997   1.000
    Mc2     Mc   0.87185   0.67109   0.67960   1.000
    Mc3     Mc   0.12812   0.32888   0.32032   1.000
    Mc4     Mc   0.35161   0.07930   0.62997   1.000
    Mc5     Mc   0.20382   0.53822   0.66772   1.000
