# CIF file generated by openbabel 2.4.90, see http://openbabel.sf.net
data_I
_chemical_name_common ''
_cell_length_a 13.444
_cell_length_b 14.201
_cell_length_c 19.045
_cell_angle_alpha 90.774
_cell_angle_beta 108.294
_cell_angle_gamma 93.384
_space_group_name_H-M_alt 'P 1'
_space_group_name_Hall 'P 1'
loop_
    _symmetry_equiv_pos_as_xyz
    x,y,z
loop_
    _atom_site_label
    _atom_site_type_symbol
    _atom_site_fract_x
    _atom_site_fract_y
    _atom_site_fract_z
    _atom_site_occupancy
    H0      H    0.05566   0.44577   0.37760   1.000
    H1      H    0.10417   0.26806   0.21447   1.000
    H2      H    0.24970   0.23207   0.34978   1.000
    H3      H    0.27633   0.60247   0.59294   1.000
    H4      H    0.18984   0.68037   0.69333   1.000
    H5      H    0.16144   0.38453   0.70400   1.000
    H6      H    0.38272   0.10122   0.51405   1.000
    H7      H    0.29413   0.15504   0.70570   1.000
    H8      H    0.37109   0.97736   0.71172   1.000
    H9      H    0.94430   0.55420   0.62228   1.000
    H10     H    0.89580   0.73191   0.78549   1.000
    H11     H    0.75028   0.76791   0.65018   1.000
    H12     H    0.72362   0.39751   0.40701   1.000
    H13     H    0.81010   0.31960   0.30663   1.000
    H14     H    0.83853   0.61543   0.29556   1.000
    H15     H    0.61727   0.89876   0.48591   1.000
    H16     H    0.70584   0.84493   0.29417   1.000
    H17     H    0.62887   0.02261   0.28823   1.000
    C18     C    0.08814   0.39356   0.35076   1.000
    C19     C    0.11608   0.30020   0.26867   1.000
    C20     C    0.18738   0.28023   0.33490   1.000
    C21     C    0.23771   0.56950   0.62957   1.000
    C22     C    0.19596   0.60700   0.68004   1.000
    C23     C    0.18096   0.45485   0.68940   1.000
    C24     C    0.36767   0.08907   0.56584   1.000
    C25     C    0.32166   0.11601   0.66682   1.000
    C26     C    0.36071   0.02894   0.66910   1.000
    C27     C    0.91182   0.60641   0.64919   1.000
    C28     C    0.88389   0.69977   0.73129   1.000
    C29     C    0.81260   0.71975   0.66499   1.000
    C30     C    0.76224   0.43047   0.37039   1.000
    C31     C    0.80399   0.39297   0.31991   1.000
    C32     C    0.81901   0.54511   0.31056   1.000
    C33     C    0.63231   0.91090   0.43412   1.000
    C34     C    0.67832   0.88396   0.33313   1.000
    C35     C    0.63926   0.97103   0.33085   1.000
    N36     N    0.05470   0.37107   0.27890   1.000
    N37     N    0.16917   0.34010   0.38750   1.000
    N38     N    0.22806   0.47192   0.63608   1.000
    N39     N    0.16023   0.53513   0.71641   1.000
    N40     N    0.32593   0.15391   0.60059   1.000
    N41     N    0.38894   0.01281   0.60598   1.000
    N42     N    0.94527   0.62889   0.72098   1.000
    N43     N    0.83080   0.65988   0.61240   1.000
    N44     N    0.77190   0.52805   0.36380   1.000
    N45     N    0.83973   0.46483   0.28355   1.000
    N46     N    0.67404   0.84607   0.39936   1.000
    N47     N    0.61103   0.98716   0.39397   1.000
loop_
    _geom_bond_atom_site_label_1
    _geom_bond_atom_site_label_2
    _geom_bond_distance
    _geom_bond_site_symmetry_2
    _ccdc_geom_bond_type
    H1     C19       1.08367      .   S
    C19    N36       1.38769      .   S
    C19    C20       1.36857      .   S
    N36    C18       1.32743      .   S
    N45    C32       1.32423      .   S
    N45    C31       1.38633      .   S
    H17    C35       1.08251  1_545   S
    H16    C34       1.08640      .   S
    H14    C32       1.08242      .   S
    H13    C31       1.08279      .   S
    C32    N44       1.37095      .   S
    C31    C30       1.37232      .   S
    C35    C34       1.36753      .   S
    C35    N47       1.38958      .   S
    C34    N46       1.39428      .   S
    C20    H2        1.08336      .   S
    C20    N37       1.39351      .   S
    C18    H0        1.08160      .   S
    C18    N37       1.37334      .   S
    N44    C30       1.39518      .   S
    C30    H12       1.08749      .   S
    N47    C33       1.32709      .   S
    N46    C33       1.37051      .   S
    C33    H15       1.08131      .   S
    H6     C24       1.08137      .   S
    C24    N40       1.37043      .   S
    C24    N41       1.32702      .   S
    H3     C21       1.08762      .   S
    N40    C25       1.39433      .   S
    N41    C26       1.38961      .   S
    N43    C27       1.37361      .   S
    N43    C29       1.39334      .   S
    H9     C27       1.08235      .   S
    C21    N38       1.39498      .   S
    C21    C22       1.37216      .   S
    N38    C23       1.37228      .   S
    C27    N42       1.32619      .   S
    H11    C29       1.08334      .   S
    C29    C28       1.36951      .   S
    C25    C26       1.36753      .   S
    C25    H7        1.08521      .   S
    C26    H8        1.08254  1_545   S
    C22    H4        1.08282      .   S
    C22    N39       1.38644      .   S
    C23    H5        1.07977      .   S
    C23    N39       1.32422      .   S
    N42    C28       1.38817      .   S
    C28    H10       1.08366      .   S
