# CIF file generated by openbabel 2.4.90, see http://openbabel.sf.net
data_I
_chemical_name_common ''
_cell_length_a 13.444
_cell_length_b 14.201
_cell_length_c 19.045
_cell_angle_alpha 90.774
_cell_angle_beta 108.294
_cell_angle_gamma 93.384
_space_group_name_H-M_alt 'P 1'
_space_group_name_Hall 'P 1'
loop_
    _symmetry_equiv_pos_as_xyz
    x,y,z
loop_
    _atom_site_label
    _atom_site_type_symbol
    _atom_site_fract_x
    _atom_site_fract_y
    _atom_site_fract_z
    _atom_site_occupancy
    H0      H    0.17522   0.43426   0.17110   1.000
    H1      H    0.87591   0.39729   0.01125   1.000
    H2      H    0.02168   0.32196   0.95319   1.000
    H3      H    0.19179   0.35051   0.94302   1.000
    H4      H    0.47988   0.22207   0.05731   1.000
    H5      H    0.27643   0.30726   0.17803   1.000
    H6      H    0.34993   0.16319   0.24178   1.000
    H7      H    0.60694   0.28127   0.17910   1.000
    H8      H    0.67950   0.20460   0.31844   1.000
    H9      H    0.20445   0.28000   0.84408   1.000
    H10     H    0.49752   0.24385   0.81352   1.000
    H11     H    0.52844   0.26211   0.96307   1.000
    H12     H    0.05566   0.44577   0.37760   1.000
    H13     H    0.10417   0.26806   0.21447   1.000
    H14     H    0.24970   0.23207   0.34978   1.000
    H15     H    0.27633   0.60247   0.59294   1.000
    H16     H    0.18984   0.68037   0.69333   1.000
    H17     H    0.16144   0.38453   0.70400   1.000
    H18     H    0.18172   0.47803   0.48989   1.000
    H19     H    0.24794   0.18928   0.45887   1.000
    H20     H    0.31137   0.30856   0.67958   1.000
    H21     H    0.38272   0.10122   0.51405   1.000
    H22     H    0.29413   0.15504   0.70570   1.000
    H23     H    0.37109   0.97736   0.71172   1.000
    H24     H    0.82474   0.56572   0.82886   1.000
    H25     H    0.12406   0.60270   0.98870   1.000
    H26     H    0.97830   0.67804   0.04676   1.000
    H27     H    0.80818   0.64948   0.05693   1.000
    H28     H    0.52009   0.77791   0.94265   1.000
    H29     H    0.72354   0.69272   0.82190   1.000
    H30     H    0.65003   0.83679   0.75816   1.000
    H31     H    0.39303   0.71872   0.82086   1.000
    H32     H    0.32046   0.79537   0.68151   1.000
    H33     H    0.79552   0.71998   0.15588   1.000
    H34     H    0.50245   0.75613   0.18643   1.000
    H35     H    0.47153   0.73789   0.03688   1.000
    H36     H    0.94430   0.55420   0.62228   1.000
    H37     H    0.89580   0.73191   0.78549   1.000
    H38     H    0.75028   0.76791   0.65018   1.000
    H39     H    0.72362   0.39751   0.40701   1.000
    H40     H    0.81010   0.31960   0.30663   1.000
    H41     H    0.83853   0.61543   0.29556   1.000
    H42     H    0.81825   0.52194   0.51006   1.000
    H43     H    0.75204   0.81070   0.54109   1.000
    H44     H    0.68860   0.69141   0.32038   1.000
    H45     H    0.61727   0.89876   0.48591   1.000
    H46     H    0.70584   0.84493   0.29417   1.000
    H47     H    0.62887   0.02261   0.28823   1.000
    C48     C    0.11240   0.41309   0.12090   1.000
    C49     C    0.95990   0.39310   0.03569   1.000
    C50     C    0.03050   0.35549   0.00654   1.000
    C51     C    0.22278   0.32965   0.05986   1.000
    C52     C    0.24427   0.32269   0.99300   1.000
    C53     C    0.33725   0.28373   0.99221   1.000
    C54     C    0.40838   0.25377   0.05760   1.000
    C55     C    0.38546   0.26291   0.12375   1.000
    C56     C    0.29278   0.30039   0.12584   1.000
    C57     C    0.42989   0.18555   0.24541   1.000
    C58     C    0.56582   0.24455   0.21263   1.000
    C59     C    0.60011   0.20658   0.28115   1.000
    C60     C    0.28772   0.27253   0.85418   1.000
    C61     C    0.43992   0.25237   0.84180   1.000
    C62     C    0.45713   0.26043   0.91643   1.000
    C63     C    0.08814   0.39356   0.35076   1.000
    C64     C    0.11608   0.30020   0.26867   1.000
    C65     C    0.18738   0.28023   0.33490   1.000
    C66     C    0.23771   0.56950   0.62957   1.000
    C67     C    0.19596   0.60700   0.68004   1.000
    C68     C    0.18096   0.45485   0.68940   1.000
    C69     C    0.24391   0.39954   0.58870   1.000
    C70     C    0.21144   0.41145   0.51224   1.000
    C71     C    0.21354   0.33503   0.46583   1.000
    C72     C    0.25093   0.24972   0.49517   1.000
    C73     C    0.28792   0.24135   0.57176   1.000
    C74     C    0.28448   0.31577   0.61960   1.000
    C75     C    0.36767   0.08907   0.56584   1.000
    C76     C    0.32166   0.11601   0.66682   1.000
    C77     C    0.36071   0.02894   0.66910   1.000
    C78     C    0.48653   0.59436   0.51942   1.000
    C79     C    0.52064   0.52735   0.57373   1.000
    C80     C    0.53348   0.43403   0.55489   1.000
    C81     C    0.59821   0.46842   0.04393   1.000
    C82     C    0.52398   0.49649   0.07647   1.000
    C83     C    0.42742   0.52720   0.03308   1.000
    C84     C    0.09723   0.75413   0.27115   1.000
    C85     C    0.18611   0.77794   0.24990   1.000
    C86     C    0.26283   0.84648   0.28973   1.000
    C87     C    0.25325   0.89317   0.35237   1.000
    C88     C    0.16240   0.87253   0.37189   1.000
    C89     C    0.08540   0.80412   0.33169   1.000
    C90     C    0.88757   0.58689   0.87906   1.000
    C91     C    0.04007   0.60689   0.96426   1.000
    C92     C    0.96947   0.64450   0.99341   1.000
    C93     C    0.77719   0.67034   0.94010   1.000
    C94     C    0.75570   0.67730   0.00693   1.000
    C95     C    0.66272   0.71626   0.00775   1.000
    C96     C    0.59159   0.74622   0.94236   1.000
    C97     C    0.61451   0.73707   0.87620   1.000
    C98     C    0.70719   0.69960   0.87412   1.000
    C99     C    0.57008   0.81442   0.75454   1.000
    C100    C    0.43415   0.75543   0.78733   1.000
    C101    C    0.39986   0.79339   0.71880   1.000
    C102    C    0.71225   0.72745   0.14578   1.000
    C103    C    0.56005   0.74762   0.15811   1.000
    C104    C    0.54284   0.73956   0.08352   1.000
    C105    C    0.91182   0.60641   0.64919   1.000
    C106    C    0.88389   0.69977   0.73129   1.000
    C107    C    0.81260   0.71975   0.66499   1.000
    C108    C    0.76224   0.43047   0.37039   1.000
    C109    C    0.80399   0.39297   0.31991   1.000
    C110    C    0.81901   0.54511   0.31056   1.000
    C111    C    0.75606   0.60043   0.41126   1.000
    C112    C    0.78853   0.58853   0.48772   1.000
    C113    C    0.78643   0.66495   0.53413   1.000
    C114    C    0.74904   0.75025   0.50478   1.000
    C115    C    0.71206   0.75862   0.42820   1.000
    C116    C    0.71549   0.68420   0.38034   1.000
    C117    C    0.63231   0.91090   0.43412   1.000
    C118    C    0.67832   0.88396   0.33313   1.000
    C119    C    0.63926   0.97103   0.33085   1.000
    C120    C    0.51337   0.40556   0.48055   1.000
    C121    C    0.47926   0.47257   0.42624   1.000
    C122    C    0.46642   0.56588   0.44500   1.000
    C123    C    0.40175   0.53157   0.95604   1.000
    C124    C    0.47598   0.50350   0.92350   1.000
    C125    C    0.57254   0.47279   0.96688   1.000
    C126    C    0.90274   0.24582   0.72883   1.000
    C127    C    0.81386   0.22200   0.75004   1.000
    C128    C    0.73715   0.15345   0.71025   1.000
    C129    C    0.74674   0.10676   0.64760   1.000
    C130    C    0.83759   0.12741   0.62809   1.000
    C131    C    0.91458   0.19582   0.66829   1.000
    Br132   Br   0.54888   0.56612   0.67538   1.000
    Br133   Br   0.57729   0.34229   0.62883   1.000
    Br134   Br   0.55754   0.49240   0.18161   1.000
    Br135   Br   0.32839   0.56609   0.07958   1.000
    Br136   Br   0.96082   0.77790   0.35876   1.000
    Br137   Br   0.14686   0.93998   0.45525   1.000
    Br138   Br   0.20171   0.71367   0.16536   1.000
    Br139   Br   0.38602   0.87644   0.26190   1.000
    Br140   Br   0.45104   0.43381   0.32458   1.000
    Br141   Br   0.42264   0.65764   0.37114   1.000
    Br142   Br   0.44242   0.50758   0.81836   1.000
    Br143   Br   0.67158   0.43391   0.92038   1.000
    Br144   Br   0.03917   0.22205   0.64123   1.000
    Br145   Br   0.85312   0.05998   0.54472   1.000
    Br146   Br   0.79825   0.28627   0.83461   1.000
    Br147   Br   0.61395   0.12349   0.73799   1.000
    N148    N    0.01158   0.42871   0.10684   1.000
    N149    N    0.12766   0.36757   0.06155   1.000
    N150    N    0.35939   0.27394   0.92468   1.000
    N151    N    0.33418   0.25934   0.80338   1.000
    N152    N    0.45675   0.23154   0.19040   1.000
    N153    N    0.51527   0.16951   0.30074   1.000
    N154    N    0.05470   0.37107   0.27890   1.000
    N155    N    0.16917   0.34010   0.38750   1.000
    N156    N    0.22806   0.47192   0.63608   1.000
    N157    N    0.16023   0.53513   0.71641   1.000
    N158    N    0.32593   0.15391   0.60059   1.000
    N159    N    0.38894   0.01281   0.60598   1.000
    N160    N    0.98839   0.57127   0.89311   1.000
    N161    N    0.87231   0.63241   0.93841   1.000
    N162    N    0.64058   0.72604   0.07527   1.000
    N163    N    0.66579   0.74064   0.19658   1.000
    N164    N    0.54322   0.76845   0.80956   1.000
    N165    N    0.48469   0.83045   0.69921   1.000
    N166    N    0.94527   0.62889   0.72098   1.000
    N167    N    0.83080   0.65988   0.61240   1.000
    N168    N    0.77190   0.52805   0.36380   1.000
    N169    N    0.83973   0.46483   0.28355   1.000
    N170    N    0.67404   0.84607   0.39936   1.000
    N171    N    0.61103   0.98716   0.39397   1.000
loop_
    _geom_bond_atom_site_label_1
    _geom_bond_atom_site_label_2
    _geom_bond_distance
    _geom_bond_site_symmetry_2
    _ccdc_geom_bond_type
    C50    C49       1.37004  1_455   S
    C50    N149      1.39381      .   S
    C50    H2        1.08527  1_554   S
    C94    C95       1.40099      .   S
    C94    H27       1.08718      .   S
    C94    C93       1.39423  1_554   S
    C95    N162      1.41487      .   S
    C95    C96       1.40039  1_554   S
    H1     C49       1.08343      .   S
    C83    C82       1.40057      .   S
    C83    Br135     1.91716      .   S
    C83    C123      1.40101  1_554   S
    C49    N148      1.38695  1_655   S
    H35    C104      1.08204      .   S
    C81    C82       1.40257      .   S
    C81    C125      1.40119  1_554   S
    H26    C92       1.08529  1_554   S
    H4     C54       1.08663      .   S
    C54    C55       1.39396      .   S
    C54    C53       1.40039  1_554   S
    C51    N149      1.42594      .   S
    C51    C56       1.39828      .   S
    C51    C52       1.39479  1_554   S
    N149   C48       1.37079      .   S
    N162   C104      1.39519      .   S
    N162   C102      1.38451      .   S
    C82    Br134     1.91195      .   S
    C104   C103      1.36776      .   S
    N148   C48       1.32942      .   S
    C48    H0        1.08309      .   S
    C55    C56       1.39495      .   S
    C55    N152      1.42490      .   S
    C56    H5        1.08762      .   S
    C102   H33       1.08668      .   S
    C102   N163      1.32275      .   S
    C103   H34       1.08474      .   S
    C103   N163      1.38996      .   S
    Br138  C85       1.91418      .   S
    H7     C58       1.08712      .   S
    N152   C58       1.39273      .   S
    N152   C57       1.37207      .   S
    C58    C59       1.37002      .   S
    H13    C64       1.08367      .   S
    H6     C57       1.08336      .   S
    C57    N153      1.32583      .   S
    C85    C84       1.40196      .   S
    C85    C86       1.39892      .   S
    Br139  C86       1.91810      .   S
    C64    N154      1.38769      .   S
    C64    C65       1.36857      .   S
    C84    C89       1.40188      .   S
    N154   C63       1.32743      .   S
    C59    N153      1.38520      .   S
    C59    H8        1.08288      .   S
    N169   C110      1.32423      .   S
    N169   C109      1.38633      .   S
    H47    C119      1.08251  1_545   S
    C86    C87       1.40163      .   S
    H46    C118      1.08640      .   S
    H41    C110      1.08242      .   S
    H40    C109      1.08279      .   S
    C110   N168      1.37095      .   S
    C109   C108      1.37232      .   S
    H44    C116      1.09249      .   S
    Br140  C121      1.91857      .   S
    C119   C118      1.36753      .   S
    C119   N171      1.38958      .   S
    C89    Br136     1.91915  1_455   S
    C89    C88       1.40185      .   S
    C118   N170      1.39428      .   S
    C65    H14       1.08336      .   S
    C65    N155      1.39351      .   S
    C63    H12       1.08160      .   S
    C63    N155      1.37334      .   S
    C87    C88       1.40057      .   S
    N168   C108      1.39518      .   S
    N168   C111      1.42841      .   S
    C108   H39       1.08749      .   S
    Br141  C122      1.90873      .   S
    C88    Br137     1.91626      .   S
    C116   C111      1.39769      .   S
    C116   C115      1.39853      .   S
    N155   C71       1.42681      .   S
    N171   C117      1.32709      .   S
    N170   C115      1.42201      .   S
    N170   C117      1.37051      .   S
    C111   C112      1.39853      .   S
    C121   C122      1.40232      .   S
    C121   C120      1.40213      .   S
    C115   C114      1.39459      .   S
    C117   H45       1.08131      .   S
    C122   C78       1.40585      .   S
    H19    C72       1.08573      .   S
    C71    C72       1.39510      .   S
    C71    C70       1.39753      .   S
    C120   C80       1.40442      .   S
    C112   H42       1.08790      .   S
    C112   C113      1.39754      .   S
    H18    C70       1.08798      .   S
    C72    C73       1.39477      .   S
    C114   C113      1.39515      .   S
    C114   H43       1.08585      .   S
    C70    C69       1.39853      .   S
    H21    C75       1.08137      .   S
    C78    C79       1.40211      .   S
    C113   N167      1.42576      .   S
    Br145  C130      1.91632      .   S
    C80    C79       1.40276      .   S
    C80    Br133     1.90969      .   S
    C75    N158      1.37043      .   S
    C75    N159      1.32702      .   S
    C73    N158      1.42196      .   S
    C73    C74       1.39829      .   S
    C79    Br132     1.91839      .   S
    C69    C74       1.39759      .   S
    C69    N156      1.42737      .   S
    H15    C66       1.08762      .   S
    N158   C76       1.39433      .   S
    N159   C77       1.38961      .   S
    N167   C105      1.37361      .   S
    N167   C107      1.39334      .   S
    C74    H20       1.09285      .   S
    H36    C105      1.08235      .   S
    C130   C129      1.40051      .   S
    C130   C131      1.40183      .   S
    C66    N156      1.39498      .   S
    C66    C67       1.37216      .   S
    N156   C68       1.37228      .   S
    Br144  C131      1.91911  1_455   S
    C129   C128      1.40182      .   S
    C105   N166      1.32619      .   S
    H38    C107      1.08334      .   S
    C107   C106      1.36951      .   S
    C76    C77       1.36753      .   S
    C76    H22       1.08521      .   S
    C131   C126      1.40191      .   S
    C77    H23       1.08254  1_545   S
    C67    H16       1.08282      .   S
    C67    N157      1.38644      .   S
    H32    C101      1.08289      .   S
    C68    H17       1.07977      .   S
    C68    N157      1.32422      .   S
    N165   C101      1.38515      .   S
    N165   C99       1.32583      .   S
    C128   Br147     1.91724      .   S
    C128   C127      1.39869      .   S
    C101   C100      1.37012      .   S
    N166   C106      1.38817      .   S
    C126   C127      1.40158      .   S
    C106   H37       1.08366      .   S
    C127   Br146     1.91479      .   S
    C99    H30       1.08339      .   S
    C99    N164      1.37214      .   S
    C100   N164      1.39275      .   S
    C100   H31       1.08706      .   S
    N151   C61       1.38977      .   S
    N151   C60       1.32275      .   S
    N164   C97       1.42477      .   S
    H10    C61       1.08420      .   S
    Br142  C124      1.91194      .   S
    H29    C98       1.08818      .   S
    H24    C90       1.08311      .   S
    C61    C62       1.36851      .   S
    H9     C60       1.08667      .   S
    C60    N150      1.38437      .   S
    C98    C97       1.39488      .   S
    C98    C93       1.39828      .   S
    C97    C96       1.39414      .   S
    C90    N160      1.32944      .   S
    C90    N161      1.37081      .   S
    N160   C91       1.38699  1_655   S
    C62    N150      1.39518      .   S
    C62    H11       1.08205      .   S
    Br143  C125      1.91717      .   S
    C124   C123      1.40259      .   S
    C124   C125      1.40052      .   S
    N150   C53       1.41505      .   S
    N161   C93       1.42593      .   S
    N161   C92       1.39375      .   S
    C96    H28       1.08663      .   S
    H3     C52       1.08693      .   S
    C91    H25       1.08344      .   S
    C91    C92       1.37003  1_455   S
    C53    C52       1.40083      .   S
