# CIF file generated by openbabel 2.4.90, see http://openbabel.sf.net
data_I
_chemical_name_common ''
_cell_length_a 13.444
_cell_length_b 14.201
_cell_length_c 19.045
_cell_angle_alpha 90.774
_cell_angle_beta 108.294
_cell_angle_gamma 93.384
_space_group_name_H-M_alt 'P 1'
_space_group_name_Hall 'P 1'
loop_
    _symmetry_equiv_pos_as_xyz
    x,y,z
loop_
    _atom_site_label
    _atom_site_type_symbol
    _atom_site_fract_x
    _atom_site_fract_y
    _atom_site_fract_z
    _atom_site_occupancy
    Cd0     Cd   0.47685   0.88782   0.58160   1.000
    Cd1     Cd   0.06908   0.53052   0.80500   1.000
    Cd2     Cd   0.52311   0.11212   0.41830   1.000
    Cd3     Cd   0.93087   0.46943   0.19495   1.000
    C4      C    0.46965   0.69481   0.54015   1.000
    C5      C    0.70282   0.43367   0.09159   1.000
    C6      C    0.01876   0.67441   0.22940   1.000
    C7      C    0.34386   0.95877   0.39988   1.000
    O8      O    0.59224   0.07825   0.54619   1.000
    C9      C    0.53029   0.30512   0.45980   1.000
    C10     C    0.29714   0.56633   0.90837   1.000
    C11     C    0.98121   0.32554   0.77056   1.000
    C12     C    0.65612   0.04118   0.60007   1.000
    O13     O    0.77899   0.49733   0.10647   1.000
    O14     O    0.70469   0.35026   0.11110   1.000
    O15     O    0.03348   0.59502   0.26086   1.000
    O16     O    0.95098   0.69156   0.16990   1.000
    O17     O    0.54801   0.75509   0.55046   1.000
    O18     O    0.38206   0.71180   0.54600   1.000
    O19     O    0.34995   0.04337   0.37959   1.000
    O20     O    0.40776   0.92174   0.45378   1.000
    O21     O    0.22097   0.50267   0.89349   1.000
    O22     O    0.29528   0.64974   0.88880   1.000
    O23     O    0.96649   0.40492   0.73908   1.000
    O24     O    0.04897   0.30844   0.83008   1.000
    O25     O    0.45198   0.24479   0.44953   1.000
    O26     O    0.61788   0.28819   0.45394   1.000
    O27     O    0.65001   0.95656   0.62034   1.000
    Ts28    Ts   0.44755   0.92948   0.58973   1.000
    Ts29    Ts   0.47947   0.86869   0.62080   1.000
    Ts30    Ts   0.09946   0.53206   0.77547   1.000
    Ts31    Ts   0.04218   0.54410   0.83437   1.000
    Ts32    Ts   0.02781   0.56331   0.77699   1.000
    Ts33    Ts   0.52049   0.13125   0.37911   1.000
    Ts34    Ts   0.55242   0.07047   0.41019   1.000
    Ts35    Ts   0.95777   0.45586   0.16558   1.000
    Ts36    Ts   0.97215   0.43664   0.22293   1.000
    Ts37    Ts   0.90049   0.46789   0.22448   1.000
    Og38    Og   0.47528   0.66133   0.53324   1.000
    Og39    Og   0.66795   0.44526   0.07570   1.000
    Og40    Og   0.04492   0.70098   0.24332   1.000
    Og41    Og   0.31366   0.93690   0.38404   1.000
    Og42    Og   0.52465   0.33860   0.46672   1.000
    Og43    Og   0.33201   0.55474   0.92426   1.000
    Og44    Og   0.95505   0.29897   0.75665   1.000
    Og45    Og   0.68632   0.06304   0.61591   1.000
loop_
    _geom_bond_atom_site_label_1
    _geom_bond_atom_site_label_2
    _geom_bond_distance
    _geom_bond_site_symmetry_2
    _ccdc_geom_bond_type
    C5     O13       1.28370      .   S
    C5     O14       1.24551      .   S
    O13    Cd3       2.26259      .   S
    O16    C6        1.24862  1_655   S
    Cd3    O15       2.28503  1_655   S
    C6     O15       1.28048      .   S
    O19    C7        1.27289  1_545   S
    O19    Cd2       2.35603      .   S
    C7     O20       1.25797      .   S
    Cd2    O25       2.31464      .   S
    Cd2    O8        2.38556      .   S
    O25    C9        1.28079      .   S
    O20    Cd0       2.38451      .   S
    O26    C9        1.25381      .   S
    C4     O18       1.25397      .   S
    C4     O17       1.28069      .   S
    O8     C12       1.25790      .   S
    O17    Cd0       2.31487      .   S
    Cd0    O27       2.35604      .   S
    C12    O27       1.27297  1_545   S
    O23    C11       1.28041      .   S
    O23    Cd1       2.28514  1_655   S
    C11    O24       1.24866  1_655   S
    Cd1    O21       2.26261      .   S
    O22    C10       1.24586      .   S
    O21    C10       1.28370      .   S
    Cd0    Ts28      0.76977      .   S
    Cd0    Ts29      0.78902      .   S
    Cd1    Ts30      0.79192      .   S
    Cd1    Ts31      0.78303      .   S
    Cd1    Ts32      0.81278      .   S
    Cd2    Ts33      0.78878      .   S
    Cd2    Ts34      0.76956      .   S
    Cd3    Ts35      0.78304      .   S
    Cd3    Ts36      0.81257      .   S
    Cd3    Ts37      0.79194      .   S
    C4     Og38      0.50790      .   S
    C5     Og39      0.50970      .   S
    C6     Og40      0.50933      .   S
    C7     Og41      0.50794      .   S
    C9     Og42      0.50795      .   S
    C10    Og43      0.50972      .   S
    C11    Og44      0.50932      .   S
    C12    Og45      0.50795      .   S
