# CIF file generated by openbabel 2.4.90, see http://openbabel.sf.net
data_I
_chemical_name_common ''
_cell_length_a 13.444
_cell_length_b 14.201
_cell_length_c 19.045
_cell_angle_alpha 90.774
_cell_angle_beta 108.294
_cell_angle_gamma 93.384
_space_group_name_H-M_alt 'P 1'
_space_group_name_Hall 'P 1'
loop_
    _symmetry_equiv_pos_as_xyz
    x,y,z
loop_
    _atom_site_label
    _atom_site_type_symbol
    _atom_site_fract_x
    _atom_site_fract_y
    _atom_site_fract_z
    _atom_site_occupancy
    Cd0     Cd   0.47685   0.88782   0.58160   1.000
    Cd1     Cd   0.06908   0.53052   0.80500   1.000
    Cd2     Cd   0.52311   0.11212   0.41830   1.000
    Cd3     Cd   0.93087   0.46943   0.19495   1.000
    C4      C    0.46965   0.69481   0.54015   1.000
    C5      C    0.70282   0.43367   0.09159   1.000
    C6      C    0.01876   0.67441   0.22940   1.000
    C7      C    0.34386   0.95877   0.39988   1.000
    O8      O    0.59224   0.07825   0.54619   1.000
    C9      C    0.53029   0.30512   0.45980   1.000
    C10     C    0.29714   0.56633   0.90837   1.000
    C11     C    0.98121   0.32554   0.77056   1.000
    C12     C    0.65612   0.04118   0.60007   1.000
    O13     O    0.77899   0.49733   0.10647   1.000
    O14     O    0.70469   0.35026   0.11110   1.000
    O15     O    0.03348   0.59502   0.26086   1.000
    O16     O    0.95098   0.69156   0.16990   1.000
    O17     O    0.54801   0.75509   0.55046   1.000
    O18     O    0.38206   0.71180   0.54600   1.000
    O19     O    0.34995   0.04337   0.37959   1.000
    O20     O    0.40776   0.92174   0.45378   1.000
    O21     O    0.22097   0.50267   0.89349   1.000
    O22     O    0.29528   0.64974   0.88880   1.000
    O23     O    0.96649   0.40492   0.73908   1.000
    O24     O    0.04897   0.30844   0.83008   1.000
    O25     O    0.45198   0.24479   0.44953   1.000
    O26     O    0.61788   0.28819   0.45394   1.000
    O27     O    0.65001   0.95656   0.62034   1.000
loop_
    _geom_bond_atom_site_label_1
    _geom_bond_atom_site_label_2
    _geom_bond_distance
    _geom_bond_site_symmetry_2
    _ccdc_geom_bond_type
    C5     O13       1.28370      .   S
    C5     O14       1.24551      .   S
    O13    Cd3       2.26259      .   S
    O16    C6        1.24862  1_655   S
    Cd3    O15       2.28503  1_655   S
    C6     O15       1.28048      .   S
    O19    C7        1.27289  1_545   S
    O19    Cd2       2.35603      .   S
    C7     O20       1.25797      .   S
    Cd2    O25       2.31464      .   S
    Cd2    O8        2.38556      .   S
    O25    C9        1.28079      .   S
    O20    Cd0       2.38451      .   S
    O26    C9        1.25381      .   S
    C4     O18       1.25397      .   S
    C4     O17       1.28069      .   S
    O8     C12       1.25790      .   S
    O17    Cd0       2.31487      .   S
    Cd0    O27       2.35604      .   S
    C12    O27       1.27297  1_545   S
    O23    C11       1.28041      .   S
    O23    Cd1       2.28514  1_655   S
    C11    O24       1.24866  1_655   S
    Cd1    O21       2.26261      .   S
    O22    C10       1.24586      .   S
    O21    C10       1.28370      .   S
