# CIF file generated by openbabel 2.4.90, see http://openbabel.sf.net
data_I
_chemical_name_common ''
_cell_length_a 13.444
_cell_length_b 14.201
_cell_length_c 19.045
_cell_angle_alpha 90.774
_cell_angle_beta 108.294
_cell_angle_gamma 93.384
_space_group_name_H-M_alt 'P 1'
_space_group_name_Hall 'P 1'
loop_
    _symmetry_equiv_pos_as_xyz
    x,y,z
loop_
    _atom_site_label
    _atom_site_type_symbol
    _atom_site_fract_x
    _atom_site_fract_y
    _atom_site_fract_z
    _atom_site_occupancy
    C0      C    0.46965   0.69481   0.54015   1.000
    C1      C    0.70282   0.43367   0.09159   1.000
    C2      C    0.01876   0.67441   0.22940   1.000
    C3      C    0.34386   0.95877   0.39988   1.000
    C4      C    0.53029   0.30512   0.45980   1.000
    C5      C    0.29714   0.56633   0.90837   1.000
    C6      C    0.98121   0.32554   0.77056   1.000
    C7      C    0.65612   0.04118   0.60007   1.000
