# CIF file generated by openbabel 2.4.90, see http://openbabel.sf.net
data_I
_chemical_name_common ''
_cell_length_a 8.9005
_cell_length_b 9.957
_cell_length_c 10.173
_cell_angle_alpha 82.633
_cell_angle_beta 88.724
_cell_angle_gamma 86.396
_space_group_name_H-M_alt 'P 1'
_space_group_name_Hall 'P 1'
loop_
    _symmetry_equiv_pos_as_xyz
    x,y,z
loop_
    _atom_site_label
    _atom_site_type_symbol
    _atom_site_fract_x
    _atom_site_fract_y
    _atom_site_fract_z
    _atom_site_occupancy
    Zn0     Zn   0.70520   0.88823   0.35092   1.000
    Zn1     Zn   0.24425   0.16188   0.32870   1.000
    Zn2     Zn   0.29481   0.11178   0.64906   1.000
    Zn3     Zn   0.00000   0.00000   0.49999   1.000
    H4      H    0.70676   0.05892   0.51701   1.000
    H5      H    0.87032   0.43608   0.58438   1.000
    H6      H    0.87645   0.91479   0.95403   1.000
    H7      H    0.43389   0.52856   0.63596   1.000
    H8      H    0.37124   0.08663   0.92562   1.000
    H9      H    0.29326   0.94108   0.48298   1.000
    H10     H    0.12969   0.56393   0.41560   1.000
    H11     H    0.12356   0.08522   0.04595   1.000
    H12     H    0.56614   0.47144   0.36402   1.000
    H13     H    0.62876   0.91335   0.07436   1.000
    C14     C    0.01536   0.31314   0.46210   1.000
    C15     C    0.96506   0.44201   0.51451   1.000
    C16     C    0.04030   0.00678   0.81088   1.000
    C17     C    0.97334   0.97697   0.94633   1.000
    C18     C    0.57617   0.67357   0.52014   1.000
    C19     C    0.49673   0.54598   0.54277   1.000
    C20     C    0.54723   0.97582   0.81894   1.000
    C21     C    0.47278   0.01975   0.93920   1.000
    C22     C    0.98466   0.68687   0.53788   1.000
    C23     C    0.03496   0.55799   0.48547   1.000
    C24     C    0.95971   0.99323   0.18910   1.000
    C25     C    0.02667   0.02304   0.05365   1.000
    C26     C    0.42385   0.32643   0.47984   1.000
    C27     C    0.50329   0.45402   0.45722   1.000
    C28     C    0.45279   0.02418   0.18105   1.000
    C29     C    0.52723   0.98024   0.06079   1.000
    O30     O    0.76842   0.97657   0.50516   1.000
    O31     O    0.96282   0.20573   0.52271   1.000
    Zn32    Zn   0.75576   0.83813   0.67128   1.000
    O33     O    0.10909   0.31862   0.36419   1.000
    O34     O    0.98134   0.95623   0.71686   1.000
    O35     O    0.15443   0.08062   0.79878   1.000
    O36     O    0.56970   0.74521   0.61506   1.000
    O37     O    0.64556   0.70240   0.40862   1.000
    O38     O    0.66473   0.89485   0.83410   1.000
    O39     O    0.49557   0.02132   0.70461   1.000
    O40     O    0.23159   0.02344   0.49482   1.000
    O41     O    0.03719   0.79428   0.47727   1.000
    O42     O    0.89093   0.68139   0.63579   1.000
    O43     O    0.01867   0.04377   0.28312   1.000
    O44     O    0.84558   0.91940   0.20120   1.000
    O45     O    0.43032   0.25480   0.38491   1.000
    O46     O    0.35447   0.29760   0.59136   1.000
    O47     O    0.33528   0.10515   0.16588   1.000
    O48     O    0.50444   0.97868   0.29538   1.000
loop_
    _geom_bond_atom_site_label_1
    _geom_bond_atom_site_label_2
    _geom_bond_distance
    _geom_bond_site_symmetry_2
    _ccdc_geom_bond_type
    H11    C25       1.08850      .   S
    C25    C24       1.49088  1_445   S
    C25    C17       1.34407  1_444   S
    C29    H13       1.08884      .   S
    C29    C28       1.48052  1_565   S
    C29    C21       1.34073  1_564   S
    O47    C28       1.27940      .   S
    O47    Zn1       1.95998      .   S
    C28    O48       1.27746  1_545   S
    C24    O44       1.28561      .   S
    C24    O43       1.27371  1_665   S
    O44    Zn0       1.95451      .   S
    O43    Zn3       2.19801      .   S
    O48    Zn0       2.00887      .   S
    Zn1    O33       1.97547      .   S
    Zn1    O45       2.07273      .   S
    Zn0    O37       1.97003      .   S
    Zn0    O30       2.00189      .   S
    H12    C27       1.09006      .   S
    O33    C14       1.28291      .   S
    O45    C26       1.27030      .   S
    O37    C18       1.28780      .   S
    H10    C23       1.09019      .   S
    C27    C26       1.48243      .   S
    C27    C19       1.33959      .   S
    C14    C15       1.49130  1_455   S
    C14    O31       1.27417  1_455   S
    O41    Zn3       2.09557  1_565   S
    O41    C22       1.27417  1_455   S
    C26    O46       1.28780      .   S
    H9     O40       0.97674  1_565   S
    C23    C15       1.34261  1_455   S
    C23    C22       1.49129  1_455   S
    O40    Zn2       2.00191      .   S
    Zn3    O31       2.09564  1_455   S
    Zn3    O34       2.19802  1_445   S
    O30    H4        0.97675  1_565   S
    C15    H5        1.09018      .   S
    C18    C19       1.48244      .   S
    C18    O36       1.27030      .   S
    C22    O42       1.28291      .   S
    C19    H7        1.09006      .   S
    O46    Zn2       1.97003      .   S
    O36    Zn32      2.07274      .   S
    O42    Zn32      1.97549      .   S
    Zn2    O39       2.00886      .   S
    Zn2    O35       1.95452      .   S
    Zn32   O38       1.95997      .   S
    O39    C20       1.27746  1_545   S
    O34    C16       1.27371  1_665   S
    O35    C16       1.28559      .   S
    C16    C17       1.49089  1_445   S
    C20    O38       1.27939      .   S
    C20    C21       1.48052  1_565   S
    H8     C21       1.08884      .   S
    C17    H6        1.08852      .   S
    O30    Zn32      2.04509      .   S
    O30    Zn3       2.08762  1_665   S
    O40    Zn1       2.04509      .   S
    O40    Zn3       2.08775      .   S
