# CIF file generated by openbabel 2.4.90, see http://openbabel.sf.net
data_I
_chemical_name_common ''
_cell_length_a 8.9005
_cell_length_b 9.957
_cell_length_c 10.173
_cell_angle_alpha 82.633
_cell_angle_beta 88.724
_cell_angle_gamma 86.396
_space_group_name_H-M_alt 'P 1'
_space_group_name_Hall 'P 1'
loop_
    _symmetry_equiv_pos_as_xyz
    x,y,z
loop_
    _atom_site_label
    _atom_site_type_symbol
    _atom_site_fract_x
    _atom_site_fract_y
    _atom_site_fract_z
    _atom_site_occupancy
    Zn0     Zn   0.70520   0.88823   0.35092   1.000
    Zn1     Zn   0.24425   0.16188   0.32870   1.000
    Zn2     Zn   0.29481   0.11178   0.64906   1.000
    Zn3     Zn   0.00000   0.00000   0.49999   1.000
    Zn4     Zn   0.75576   0.83813   0.67128   1.000
