# CIF file generated by openbabel 2.4.90, see http://openbabel.sf.net
data_I
_chemical_name_common ''
_cell_length_a 8.9005
_cell_length_b 9.957
_cell_length_c 10.173
_cell_angle_alpha 82.633
_cell_angle_beta 88.724
_cell_angle_gamma 86.396
_space_group_name_H-M_alt 'P 1'
_space_group_name_Hall 'P 1'
loop_
    _symmetry_equiv_pos_as_xyz
    x,y,z
loop_
    _atom_site_label
    _atom_site_type_symbol
    _atom_site_fract_x
    _atom_site_fract_y
    _atom_site_fract_z
    _atom_site_occupancy
    C0      C    0.01536   0.31314   0.46210   1.000
    C1      C    0.04030   0.00678   0.81088   1.000
    C2      C    0.57617   0.67357   0.52014   1.000
    C3      C    0.54723   0.97582   0.81894   1.000
    C4      C    0.98466   0.68687   0.53788   1.000
    C5      C    0.95971   0.99323   0.18910   1.000
    C6      C    0.42385   0.32643   0.47984   1.000
    C7      C    0.45279   0.02418   0.18105   1.000
