# CIF file generated by openbabel 2.4.90, see http://openbabel.sf.net
data_I
_chemical_name_common ''
_cell_length_a 8.9005
_cell_length_b 9.957
_cell_length_c 10.173
_cell_angle_alpha 82.633
_cell_angle_beta 88.724
_cell_angle_gamma 86.396
_space_group_name_H-M_alt 'P 1'
_space_group_name_Hall 'P 1'
loop_
    _symmetry_equiv_pos_as_xyz
    x,y,z
loop_
    _atom_site_label
    _atom_site_type_symbol
    _atom_site_fract_x
    _atom_site_fract_y
    _atom_site_fract_z
    _atom_site_occupancy
    Zr0     Zr   0.75576   0.83813   0.67128   1.000
    Zr1     Zr   0.70520   0.88823   0.35092   1.000
    Zr2     Zr   0.24425   0.16188   0.32870   1.000
    Zr3     Zr   0.29481   0.11178   0.64906   1.000
    Zr4     Zr   0.00000   0.00000   0.49999   1.000
    N5      N    0.50000   1.00000   0.99999   1.000
    N6      N    0.00001   0.50000   0.49999   1.000
    N7      N    0.50001   0.50000   0.49999   1.000
    N8      N    0.00001   0.00000   0.99999   1.000
    C9      C    0.97093   0.72085   0.55031   1.000
    O10     O    0.89714   0.74030   0.60193   1.000
    O11     O    0.98792   0.64103   0.52807   1.000
    O12     O    0.99476   0.80899   0.51947   1.000
    C13     C    0.02909   0.27916   0.44967   1.000
    O14     O    0.10288   0.25970   0.39806   1.000
    O15     O    0.01210   0.35897   0.47191   1.000
    O16     O    0.00525   0.19101   0.48051   1.000
    C17     C    0.43084   0.03601   0.21410   1.000
    O18     O    0.51783   0.98473   0.26863   1.000
    O19     O    0.46292   0.01856   0.13728   1.000
    O20     O    0.36030   0.08476   0.23070   1.000
    C21     C    0.56917   0.96400   0.78588   1.000
    O22     O    0.63971   0.91524   0.76929   1.000
    O23     O    0.48218   0.01527   0.73136   1.000
    O24     O    0.53709   0.98144   0.86271   1.000
    C25     C    0.26243   0.98226   0.48890   1.000
    O26     O    0.26281   0.02494   0.53042   1.000
    O27     O    0.25017   0.03746   0.45033   1.000
    O28     O    0.18911   0.99699   0.49315   1.000
    C29     C    0.94132   0.98547   0.22447   1.000
    O30     O    0.96896   0.99477   0.14258   1.000
    O31     O    0.85835   0.94464   0.25027   1.000
    O32     O    0.97533   0.00368   0.30801   1.000
    C33     C    0.73759   0.01775   0.51108   1.000
    O34     O    0.73720   0.97507   0.46956   1.000
    O35     O    0.74984   0.96255   0.54965   1.000
    O36     O    0.81090   0.00301   0.50683   1.000
    C37     C    0.40288   0.29294   0.48537   1.000
    O38     O    0.37008   0.25064   0.42109   1.000
    O39     O    0.44233   0.36903   0.48482   1.000
    O40     O    0.36376   0.24882   0.55279   1.000
    C41     C    0.05869   0.01454   0.77551   1.000
    O42     O    0.02468   0.99633   0.69197   1.000
    O43     O    0.14166   0.05537   0.74971   1.000
    O44     O    0.03105   0.00524   0.85740   1.000
    C45     C    0.59714   0.70706   0.51461   1.000
    O46     O    0.62994   0.74937   0.57889   1.000
    O47     O    0.63626   0.75119   0.44719   1.000
    O48     O    0.55769   0.63097   0.51516   1.000
loop_
    _geom_bond_atom_site_label_1
    _geom_bond_atom_site_label_2
    _geom_bond_distance
    _geom_bond_site_symmetry_2
    _ccdc_geom_bond_type
    C9     O10       0.85982      .   S
    Zr0    O10       1.73568      .   S
    C9     O11       0.85738      .   S
    N6     O11       1.46545  1_455   S
    C9     O12       0.92930      .   S
    Zr4    O12       1.89012  1_445   S
    C13    O14       0.85981      .   S
    Zr2    O14       1.73567      .   S
    C13    O15       0.85739      .   S
    N6     O15       1.46546      .   S
    C13    O16       0.92932      .   S
    Zr4    O16       1.89018      .   S
    C17    O18       1.03182  1_545   S
    Zr1    O18       2.01493      .   S
    C17    O19       0.86091      .   S
    N5     O19       1.46000  1_566   S
    C17    O20       0.79766      .   S
    Zr2    O20       1.64352      .   S
    C21    O22       0.79766      .   S
    Zr0    O22       1.64352      .   S
    C21    O23       1.03182  1_565   S
    Zr3    O23       2.01493      .   S
    C21    O24       0.86091      .   S
    N5     O24       1.46000      .   S
    C25    O26       0.63659  1_565   S
    Zr3    O26       1.61225      .   S
    C25    O27       0.63795  1_565   S
    Zr2    O27       1.63404      .   S
    C25    O28       0.66146      .   S
    Zr4    O28       1.68162  1_545   S
    C29    O30       0.85855      .   S
    N8     O30       1.46551  1_446   S
    C29    O31       0.88383      .   S
    Zr1    O31       1.76317      .   S
    C29    O32       0.95112  1_565   S
    Zr4    O32       1.96557  1_455   S
    C33    O34       0.63659  1_545   S
    Zr1    O34       1.61224      .   S
    C33    O35       0.63795  1_545   S
    Zr0    O35       1.63404      .   S
    C33    O36       0.66143      .   S
    Zr4    O36       1.68152  1_455   S
    C37    O38       0.88594      .   S
    Zr2    O38       1.81747      .   S
    C37    O39       0.85413      .   S
    N7     O39       1.45853      .   S
    C37    O40       0.84616      .   S
    Zr3    O40       1.71270      .   S
    C41    O42       0.95114  1_545   S
    Zr4    O42       1.96559  1_545   S
    C41    O43       0.88382      .   S
    Zr3    O43       1.76317      .   S
    C41    O44       0.85855      .   S
    N8     O44       1.46551      .   S
    C45    O46       0.88594      .   S
    Zr0    O46       1.81748      .   S
    C45    O47       0.84615      .   S
    Zr1    O47       1.71268      .   S
    C45    O48       0.85413      .   S
    N7     O48       1.45853      .   S
