# CIF file generated by openbabel 2.4.90, see http://openbabel.sf.net
data_I
_chemical_name_common ''
_cell_length_a 15.405
_cell_length_b 21.449
_cell_length_c 21.44
_cell_angle_alpha 119.836
_cell_angle_beta 90.02
_cell_angle_gamma 89.974
_space_group_name_H-M_alt 'P 1'
_space_group_name_Hall 'P 1'
loop_
    _symmetry_equiv_pos_as_xyz
    x,y,z
loop_
    _atom_site_label
    _atom_site_type_symbol
    _atom_site_fract_x
    _atom_site_fract_y
    _atom_site_fract_z
    _atom_site_occupancy
    C0      C    0.41658   0.67751   0.21870   1.000
    C1      C    0.91597   0.67745   0.21880   1.000
    C2      C    0.08343   0.54124   0.32305   1.000
    C3      C    0.58361   0.54133   0.32318   1.000
    C4      C    0.24971   0.78177   0.45936   1.000
    C5      C    0.74955   0.78175   0.45920   1.000
    C6      C    0.41563   0.32297   0.78151   1.000
    C7      C    0.91566   0.32296   0.78150   1.000
    C8      C    0.08166   0.45964   0.67688   1.000
    C9      C    0.58168   0.45962   0.67685   1.000
    C10     C    0.24964   0.21864   0.54120   1.000
    C11     C    0.74970   0.21855   0.54121   1.000
    C12     C    0.24881   0.45901   0.78154   1.000
    C13     C    0.74886   0.45896   0.78144   1.000
    C14     C    0.08328   0.21849   0.67732   1.000
    C15     C    0.58330   0.21850   0.67732   1.000
    C16     C    0.41610   0.32304   0.54085   1.000
    C17     C    0.91610   0.32299   0.54082   1.000
    C18     C    0.25030   0.54107   0.21820   1.000
    C19     C    0.74990   0.54106   0.21820   1.000
    C20     C    0.08379   0.78148   0.32279   1.000
    C21     C    0.58322   0.78160   0.32277   1.000
    C22     C    0.41634   0.67691   0.45915   1.000
    C23     C    0.91649   0.67695   0.45920   1.000
