# CIF file generated by openbabel 2.4.90, see http://openbabel.sf.net
data_I
_chemical_name_common ''
_cell_length_a 15.405
_cell_length_b 21.449
_cell_length_c 21.44
_cell_angle_alpha 119.836
_cell_angle_beta 90.02
_cell_angle_gamma 89.974
_space_group_name_H-M_alt 'P 1'
_space_group_name_Hall 'P 1'
loop_
    _symmetry_equiv_pos_as_xyz
    x,y,z
loop_
    _atom_site_label
    _atom_site_type_symbol
    _atom_site_fract_x
    _atom_site_fract_y
    _atom_site_fract_z
    _atom_site_occupancy
    Zr0     Zr   0.41541   0.60156   0.30140   1.000
    Zr1     Zr   0.91529   0.60168   0.30152   1.000
    Zr2     Zr   0.08443   0.69888   0.39870   1.000
    Zr3     Zr   0.58427   0.69893   0.39878   1.000
    Zr4     Zr   0.25070   0.69943   0.30082   1.000
    Zr5     Zr   0.74900   0.69935   0.30078   1.000
    Zr6     Zr   0.41512   0.39853   0.69861   1.000
    Zr7     Zr   0.91516   0.39848   0.69856   1.000
    Zr8     Zr   0.08378   0.30138   0.60141   1.000
    Zr9     Zr   0.58392   0.30134   0.60136   1.000
    Zr10    Zr   0.24857   0.30113   0.69950   1.000
    Zr11    Zr   0.74860   0.30108   0.69947   1.000
    N12     N    0.08320   0.31563   0.00013   1.000
    N13     N    0.91666   0.00025   0.31567   1.000
    N14     N    0.25018   0.31522   0.31464   1.000
    N15     N    0.24969   0.68538   0.68540   1.000
    N16     N    0.41650   0.00041   0.31572   1.000
    N17     N    0.74972   0.68539   0.68540   1.000
    N18     N    0.75022   0.31522   0.31459   1.000
    N19     N    0.08306   0.68468   0.00013   1.000
    N20     N    0.58316   0.31556   0.00007   1.000
    N21     N    0.41651   0.00000   0.68463   1.000
    N22     N    0.58324   0.68464   0.99999   1.000
    N23     N    0.91650   0.99994   0.68453   1.000
    C24     C    0.23881   0.76730   0.44191   1.000
    O25     O    0.18484   0.74772   0.43720   1.000
    O26     O    0.25443   0.74919   0.39617   1.000
    O27     O    0.29129   0.83607   0.51537   1.000
    C28     C    0.59420   0.76708   0.32575   1.000
    O29     O    0.64827   0.74774   0.31096   1.000
    O30     O    0.54169   0.83603   0.32105   1.000
    O31     O    0.57910   0.74882   0.35329   1.000
    C32     C    0.76078   0.55852   0.23269   1.000
    O33     O    0.70832   0.48499   0.16393   1.000
    O34     O    0.74512   0.60417   0.25089   1.000
    O35     O    0.81483   0.56324   0.25233   1.000
    C36     C    0.57282   0.55893   0.32639   1.000
    O37     O    0.51772   0.56370   0.31208   1.000
    O38     O    0.58874   0.60422   0.35334   1.000
    O39     O    0.62519   0.48513   0.32109   1.000
    C40     C    0.26128   0.55850   0.23268   1.000
    O41     O    0.20866   0.48501   0.16394   1.000
    O42     O    0.24601   0.60422   0.25088   1.000
    O43     O    0.31518   0.56314   0.25231   1.000
    C44     C    0.40560   0.67454   0.23321   1.000
    O45     O    0.35151   0.68931   0.25251   1.000
    O46     O    0.42068   0.64701   0.25149   1.000
    O47     O    0.45810   0.67925   0.16428   1.000
    C48     C    0.73857   0.76729   0.44177   1.000
    O49     O    0.68463   0.74776   0.43715   1.000
    O50     O    0.79114   0.83604   0.51523   1.000
    O51     O    0.75379   0.74914   0.39603   1.000
    C52     C    0.09474   0.76701   0.32584   1.000
    O53     O    0.04213   0.83592   0.32107   1.000
    O54     O    0.07947   0.74875   0.35331   1.000
    O55     O    0.14915   0.74772   0.31110   1.000
    C56     C    0.92720   0.67382   0.44159   1.000
    O57     O    0.87486   0.67900   0.51543   1.000
    O58     O    0.98227   0.68811   0.43674   1.000
    O59     O    0.91113   0.64697   0.39629   1.000
    C60     C    0.07264   0.55884   0.32625   1.000
    O61     O    0.08868   0.60413   0.35316   1.000
    O62     O    0.01752   0.56367   0.31207   1.000
    O63     O    0.12505   0.48506   0.32100   1.000
    C64     C    0.42705   0.67379   0.44154   1.000
    O65     O    0.37474   0.67897   0.51539   1.000
    O66     O    0.48210   0.68814   0.43673   1.000
    O67     O    0.41109   0.64688   0.39621   1.000
    C68     C    0.90503   0.67441   0.23329   1.000
    O69     O    0.92033   0.64704   0.25164   1.000
    O70     O    0.95763   0.67920   0.16439   1.000
    O71     O    0.85056   0.68907   0.25249   1.000
    C72     C    0.57079   0.44208   0.67368   1.000
    O73     O    0.51622   0.43716   0.68810   1.000
    O74     O    0.62361   0.51575   0.67893   1.000
    O75     O    0.58700   0.39654   0.64662   1.000
    C76     C    0.07076   0.44209   0.67371   1.000
    O77     O    0.12359   0.51576   0.67895   1.000
    O78     O    0.01621   0.43716   0.68810   1.000
    O79     O    0.08695   0.39656   0.64666   1.000
    C80     C    0.09426   0.23299   0.67434   1.000
    O81     O    0.14819   0.25245   0.68921   1.000
    O82     O    0.04172   0.16411   0.67908   1.000
    O83     O    0.07904   0.25129   0.64678   1.000
    C84     C    0.92675   0.32604   0.55842   1.000
    O85     O    0.87470   0.32110   0.48459   1.000
    O86     O    0.98168   0.31169   0.56328   1.000
    O87     O    0.91085   0.35309   0.60375   1.000
    C88     C    0.73875   0.23306   0.55867   1.000
    O89     O    0.75382   0.25121   0.60436   1.000
    O90     O    0.68469   0.25262   0.56322   1.000
    O91     O    0.79131   0.16424   0.48514   1.000
    C92     C    0.42675   0.32608   0.55846   1.000
    O93     O    0.48171   0.31171   0.56329   1.000
    O94     O    0.37468   0.32113   0.48462   1.000
    O95     O    0.41084   0.35314   0.60379   1.000
    C96     C    0.90467   0.32603   0.76705   1.000
    O97     O    0.95742   0.32119   0.83590   1.000
    O98     O    0.92014   0.35313   0.74845   1.000
    O99     O    0.85005   0.31158   0.74801   1.000
    C100    C    0.59430   0.23299   0.67433   1.000
    O101    O    0.64822   0.25243   0.68920   1.000
    O102    O    0.54175   0.16413   0.67911   1.000
    O103    O    0.57910   0.25128   0.64676   1.000
    C104    C    0.23870   0.23315   0.55871   1.000
    O105    O    0.18462   0.25270   0.56328   1.000
    O106    O    0.25378   0.25128   0.60440   1.000
    O107    O    0.29122   0.16435   0.48517   1.000
    C108    C    0.25958   0.44149   0.76703   1.000
    O109    O    0.31406   0.43674   0.74763   1.000
    O110    O    0.20748   0.51511   0.83593   1.000
    O111    O    0.24392   0.39604   0.74881   1.000
    C112    C    0.40463   0.32605   0.76706   1.000
    O113    O    0.35001   0.31161   0.74804   1.000
    O114    O    0.42011   0.35315   0.74847   1.000
    O115    O    0.45738   0.32118   0.83590   1.000
    C116    C    0.75963   0.44144   0.76693   1.000
    O117    O    0.74396   0.39599   0.74873   1.000
    O118    O    0.70757   0.51507   0.83582   1.000
    O119    O    0.81411   0.43669   0.74755   1.000
loop_
    _geom_bond_atom_site_label_1
    _geom_bond_atom_site_label_2
    _geom_bond_distance
    _geom_bond_site_symmetry_2
    _ccdc_geom_bond_type
    C24    O25       0.91426      .   S
    Zr2    O25       1.81984      .   S
    C24    O26       0.88956      .   S
    Zr4    O26       1.77503      .   S
    C24    O27       1.73171      .   S
    N21    O27       4.06907  1_545   S
    C28    O29       0.91396      .   S
    Zr5    O29       1.81827      .   S
    C28    O30       1.73184      .   S
    N16    O30       4.06905  1_545   S
    C28    O31       0.88700      .   S
    Zr3    O31       1.77221      .   S
    C32    O33       1.73218      .   S
    N20    O33       4.06999      .   S
    C32    O34       0.88807      .   S
    Zr5    O34       1.77270      .   S
    C32    O35       0.91572      .   S
    Zr1    O35       1.82257      .   S
    C36    O37       0.92521      .   S
    Zr0    O37       1.83833      .   S
    C36    O38       0.88272      .   S
    Zr3    O38       1.76383      .   S
    C36    O39       1.72908      .   S
    N18    O39       4.06191      .   S
    C40    O41       1.73277      .   S
    N12    O41       4.07126      .   S
    C40    O42       0.88789      .   S
    Zr4    O42       1.77380      .   S
    C40    O43       0.91359      .   S
    Zr0    O43       1.81877      .   S
    C44    O45       0.91410      .   S
    Zr4    O45       1.81895      .   S
    C44    O46       0.88682      .   S
    Zr0    O46       1.77193      .   S
    C44    O47       1.73138      .   S
    N22    O47       4.06777  1_556   S
    C48    O49       0.91365      .   S
    Zr3    O49       1.81852      .   S
    C48    O50       1.73213      .   S
    N23    O50       4.07026      .   S
    C48    O51       0.88786      .   S
    Zr5    O51       1.77378      .   S
    C52    O53       1.73249      .   S
    N13    O53       4.07103  1_645   S
    C52    O54       0.88601      .   S
    Zr2    O54       1.76998      .   S
    C52    O55       0.91839      .   S
    Zr4    O55       1.82764      .   S
    C56    O57       1.73033      .   S
    N17    O57       4.06487      .   S
    C56    O58       0.92553      .   S
    Zr2    O58       1.83958  1_455   S
    C56    O59       0.88291      .   S
    Zr1    O59       1.76421      .   S
    C60    O61       0.88323      .   S
    Zr2    O61       1.76441      .   S
    C60    O62       0.92488      .   S
    Zr1    O62       1.83794  1_655   S
    C60    O63       1.72926      .   S
    N14    O63       4.06254      .   S
    C64    O65       1.73042      .   S
    N15    O65       4.06495      .   S
    C64    O66       0.92532      .   S
    Zr3    O66       1.83898      .   S
    C64    O67       0.88306      .   S
    Zr0    O67       1.76506      .   S
    C68    O69       0.88569      .   S
    Zr1    O69       1.76978      .   S
    C68    O70       1.73235      .   S
    N19    O70       4.07030  1_455   S
    C68    O71       0.91861      .   S
    Zr5    O71       1.82812      .   S
    C72    O73       0.91979      .   S
    Zr6    O73       1.83023      .   S
    C72    O74       1.73095      .   S
    N17    O74       4.06653      .   S
    C72    O75       0.88829      .   S
    Zr9    O75       1.77252      .   S
    C76    O77       1.73086      .   S
    N15    O77       4.06624      .   S
    C76    O78       0.91951      .   S
    Zr7    O78       1.82977  1_655   S
    C76    O79       0.88803      .   S
    Zr8    O79       1.77213      .   S
    C80    O81       0.91304      .   S
    Zr10   O81       1.81721      .   S
    C80    O82       1.73155      .   S
    N23    O82       4.06827  1_665   S
    C80    O83       0.88808      .   S
    Zr8    O83       1.77384      .   S
    C84    O85       1.72994      .   S
    N18    O85       4.06385      .   S
    C84    O86       0.92359      .   S
    Zr8    O86       1.83579  1_455   S
    C84    O87       0.88324      .   S
    Zr7    O87       1.76491      .   S
    C88    O89       0.88631      .   S
    Zr11   O89       1.77157      .   S
    C88    O90       0.91538      .   S
    Zr9    O90       1.82207      .   S
    C88    O91       1.73330      .   S
    N13    O91       4.07247      .   S
    C92    O93       0.92413      .   S
    Zr9    O93       1.83688      .   S
    C92    O94       1.72988      .   S
    N14    O94       4.06361      .   S
    C92    O95       0.88334      .   S
    Zr6    O95       1.76514      .   S
    C96    O97       1.73277      .   S
    N12    O97       4.07166  1_454   S
    C96    O98       0.88562      .   S
    Zr7    O98       1.76968      .   S
    C96    O99       0.91907      .   S
    Zr11   O99       1.82812      .   S
    C100   O101      0.91295      .   S
    Zr11   O101      1.81694      .   S
    C100   O102      1.73155      .   S
    N21    O102      4.06828      .   S
    C100   O103      0.88803      .   S
    Zr9    O103      1.77383      .   S
    C104   O105      0.91562      .   S
    Zr8    O105      1.82253      .   S
    C104   O106      0.88630      .   S
    Zr10   O106      1.77139      .   S
    C104   O107      1.73291      .   S
    N16    O107      4.07133      .   S
    C108   O109      0.91967      .   S
    Zr6    O109      1.82838      .   S
    C108   O110      1.73159      .   S
    N19    O110      4.06863  1_554   S
    C108   O111      0.88460      .   S
    Zr10   O111      1.76778      .   S
    C112   O113      0.91907      .   S
    Zr10   O113      1.82811      .   S
    C112   O114      0.88562      .   S
    Zr6    O114      1.76972      .   S
    C112   O115      1.73259      .   S
    N20    O115      4.07118  1_554   S
    C116   O117      0.88461      .   S
    Zr11   O117      1.76779      .   S
    C116   O118      1.73124      .   S
    N22    O118      4.06774      .   S
    C116   O119      0.91955      .   S
    Zr7    O119      1.82798      .   S
