# CIF file generated by openbabel 2.4.90, see http://openbabel.sf.net
data_I
_chemical_name_common ''
_cell_length_a 15.405
_cell_length_b 21.449
_cell_length_c 21.44
_cell_angle_alpha 119.836
_cell_angle_beta 90.02
_cell_angle_gamma 89.974
_space_group_name_H-M_alt 'P 1'
_space_group_name_Hall 'P 1'
loop_
    _symmetry_equiv_pos_as_xyz
    x,y,z
loop_
    _atom_site_label
    _atom_site_type_symbol
    _atom_site_fract_x
    _atom_site_fract_y
    _atom_site_fract_z
    _atom_site_occupancy
    Zr0     Zr   0.41541   0.60156   0.30140   1.000
    Zr1     Zr   0.91529   0.60168   0.30152   1.000
    Zr2     Zr   0.08443   0.69888   0.39870   1.000
    Zr3     Zr   0.58427   0.69893   0.39878   1.000
    Zr4     Zr   0.25070   0.69943   0.30082   1.000
    Zr5     Zr   0.74900   0.69935   0.30078   1.000
    Zr6     Zr   0.41512   0.39853   0.69861   1.000
    Zr7     Zr   0.91516   0.39848   0.69856   1.000
    Zr8     Zr   0.08378   0.30138   0.60141   1.000
    Zr9     Zr   0.58392   0.30134   0.60136   1.000
    Zr10    Zr   0.24857   0.30113   0.69950   1.000
    Zr11    Zr   0.74860   0.30108   0.69947   1.000
    Zr12    Zr   0.41658   0.67751   0.21870   1.000
    Zr13    Zr   0.91597   0.67745   0.21880   1.000
    Zr14    Zr   0.08343   0.54124   0.32305   1.000
    Zr15    Zr   0.58361   0.54133   0.32318   1.000
    Zr16    Zr   0.24971   0.78177   0.45936   1.000
    Zr17    Zr   0.74955   0.78175   0.45920   1.000
    Zr18    Zr   0.41563   0.32297   0.78151   1.000
    Zr19    Zr   0.91566   0.32296   0.78150   1.000
    Zr20    Zr   0.08166   0.45964   0.67688   1.000
    Zr21    Zr   0.58168   0.45962   0.67685   1.000
    Zr22    Zr   0.24964   0.21864   0.54120   1.000
    Zr23    Zr   0.74970   0.21855   0.54121   1.000
    Zr24    Zr   0.24881   0.45901   0.78154   1.000
    Zr25    Zr   0.74886   0.45896   0.78144   1.000
    Zr26    Zr   0.08328   0.21849   0.67732   1.000
    Zr27    Zr   0.58330   0.21850   0.67732   1.000
    Zr28    Zr   0.41610   0.32304   0.54085   1.000
    Zr29    Zr   0.91610   0.32299   0.54082   1.000
    Zr30    Zr   0.25030   0.54107   0.21820   1.000
    Zr31    Zr   0.74990   0.54106   0.21820   1.000
    Zr32    Zr   0.08379   0.78148   0.32279   1.000
    Zr33    Zr   0.58322   0.78160   0.32277   1.000
    Zr34    Zr   0.41634   0.67691   0.45915   1.000
    Zr35    Zr   0.91649   0.67695   0.45920   1.000
    Zr36    Zr   0.45610   0.63738   0.23814   1.000
    Zr37    Zr   0.95596   0.63767   0.23845   1.000
    Zr38    Zr   0.34413   0.70874   0.24280   1.000
    Zr39    Zr   0.84317   0.70810   0.24261   1.000
    Zr40    Zr   0.12501   0.59997   0.36144   1.000
    Zr41    Zr   0.62503   0.60009   0.36182   1.000
    Zr42    Zr   0.00949   0.53530   0.29426   1.000
    Zr43    Zr   0.50982   0.53538   0.29416   1.000
    Zr44    Zr   0.28941   0.76272   0.40006   1.000
    Zr45    Zr   0.78904   0.76262   0.39981   1.000
    Zr46    Zr   0.17731   0.75741   0.46630   1.000
    Zr47    Zr   0.67712   0.75751   0.46629   1.000
    Zr48    Zr   0.45606   0.36197   0.76116   1.000
    Zr49    Zr   0.95609   0.36196   0.76115   1.000
    Zr50    Zr   0.34220   0.29321   0.75852   1.000
    Zr51    Zr   0.84225   0.29318   0.75849   1.000
    Zr52    Zr   0.12248   0.40067   0.63781   1.000
    Zr53    Zr   0.62250   0.40066   0.63777   1.000
    Zr54    Zr   0.00815   0.46597   0.70644   1.000
    Zr55    Zr   0.50818   0.46596   0.70643   1.000
    Zr56    Zr   0.28916   0.23770   0.60067   1.000
    Zr57    Zr   0.78919   0.23764   0.60063   1.000
    Zr58    Zr   0.17729   0.24311   0.53427   1.000
    Zr59    Zr   0.67736   0.24301   0.53417   1.000
    Zr60    Zr   0.20794   0.40003   0.76167   1.000
    Zr61    Zr   0.70799   0.39999   0.76160   1.000
    Zr62    Zr   0.32198   0.46544   0.75787   1.000
    Zr63    Zr   0.82202   0.46537   0.75776   1.000
    Zr64    Zr   0.04385   0.23780   0.63705   1.000
    Zr65    Zr   0.54390   0.23779   0.63703   1.000
    Zr66    Zr   0.15566   0.24268   0.70865   1.000
    Zr67    Zr   0.65569   0.24267   0.70865   1.000
    Zr68    Zr   0.37473   0.36186   0.59963   1.000
    Zr69    Zr   0.87474   0.36181   0.59960   1.000
    Zr70    Zr   0.48942   0.29335   0.53489   1.000
    Zr71    Zr   0.98943   0.29331   0.53485   1.000
    Zr72    Zr   0.21079   0.60046   0.23736   1.000
    Zr73    Zr   0.70995   0.60029   0.23742   1.000
    Zr74    Zr   0.32275   0.53399   0.24248   1.000
    Zr75    Zr   0.82248   0.53423   0.24244   1.000
    Zr76    Zr   0.04399   0.76210   0.36284   1.000
    Zr77    Zr   0.54370   0.76217   0.36289   1.000
    Zr78    Zr   0.15643   0.75744   0.29190   1.000
    Zr79    Zr   0.65569   0.75747   0.29158   1.000
    Zr80    Zr   0.37482   0.63839   0.40038   1.000
    Zr81    Zr   0.87483   0.63858   0.40047   1.000
    Zr82    Zr   0.49000   0.70607   0.46508   1.000
    Zr83    Zr   0.99027   0.70592   0.46510   1.000
    O84     O    0.72992   0.57067   0.22781   1.000
    O85     O    0.78619   0.53764   0.23032   1.000
    O86     O    0.23055   0.57076   0.22778   1.000
    O87     O    0.28652   0.53753   0.23034   1.000
    O88     O    0.43634   0.65744   0.22842   1.000
    O89     O    0.38036   0.69312   0.23075   1.000
    O90     O    0.93597   0.65756   0.22862   1.000
    O91     O    0.87957   0.69278   0.23070   1.000
    O92     O    0.23075   0.64994   0.26909   1.000
    O93     O    0.72947   0.64982   0.26910   1.000
    O94     O    0.43575   0.61947   0.26977   1.000
    O95     O    0.93563   0.61968   0.26998   1.000
    O96     O    0.86889   0.56795   0.27198   1.000
    O97     O    0.36908   0.56777   0.27194   1.000
    O98     O    0.79608   0.70372   0.27169   1.000
    O99     O    0.29741   0.70408   0.27181   1.000
    O100    O    0.70234   0.72841   0.29618   1.000
    O101    O    0.61945   0.76953   0.30717   1.000
    O102    O    0.20356   0.72844   0.29636   1.000
    O103    O    0.12011   0.76946   0.30734   1.000
    O104    O    0.46262   0.56847   0.29778   1.000
    O105    O    0.54672   0.53836   0.30867   1.000
    O106    O    0.96239   0.56849   0.29789   1.000
    O107    O    0.04646   0.53827   0.30865   1.000
    O108    O    0.76902   0.73098   0.35030   1.000
    O109    O    0.27006   0.73108   0.35044   1.000
    O110    O    0.39512   0.61997   0.35089   1.000
    O111    O    0.89506   0.62013   0.35099   1.000
    O112    O    0.56346   0.77188   0.34283   1.000
    O113    O    0.06389   0.77179   0.34282   1.000
    O114    O    0.10422   0.57061   0.34224   1.000
    O115    O    0.60432   0.57071   0.34250   1.000
    O116    O    0.10472   0.64942   0.38007   1.000
    O117    O    0.60465   0.64951   0.38030   1.000
    O118    O    0.06421   0.73049   0.38077   1.000
    O119    O    0.56399   0.73055   0.38083   1.000
    O120    O    0.03735   0.70240   0.43190   1.000
    O121    O    0.13087   0.72815   0.43250   1.000
    O122    O    0.53714   0.70250   0.43193   1.000
    O123    O    0.63069   0.72822   0.43254   1.000
    O124    O    0.76929   0.77219   0.42950   1.000
    O125    O    0.26956   0.77225   0.42971   1.000
    O126    O    0.39558   0.65765   0.42976   1.000
    O127    O    0.89566   0.65777   0.42983   1.000
    O128    O    0.45317   0.69149   0.46211   1.000
    O129    O    0.95338   0.69143   0.46215   1.000
    O130    O    0.71333   0.76963   0.46275   1.000
    O131    O    0.21351   0.76959   0.46283   1.000
    O132    O    0.71353   0.23078   0.53769   1.000
    O133    O    0.63064   0.27217   0.56776   1.000
    O134    O    0.21346   0.23087   0.53773   1.000
    O135    O    0.13054   0.27224   0.56784   1.000
    O136    O    0.95276   0.30815   0.53783   1.000
    O137    O    0.03661   0.29735   0.56813   1.000
    O138    O    0.45276   0.30819   0.53787   1.000
    O139    O    0.53667   0.29734   0.56812   1.000
    O140    O    0.89542   0.34240   0.57021   1.000
    O141    O    0.39542   0.34245   0.57024   1.000
    O142    O    0.26940   0.22817   0.57093   1.000
    O143    O    0.76944   0.22809   0.57092   1.000
    O144    O    0.89495   0.38015   0.64908   1.000
    O145    O    0.39493   0.38020   0.64912   1.000
    O146    O    0.76890   0.26936   0.65005   1.000
    O147    O    0.26886   0.26941   0.65008   1.000
    O148    O    0.56391   0.26956   0.61919   1.000
    O149    O    0.60321   0.35100   0.61956   1.000
    O150    O    0.06382   0.26959   0.61923   1.000
    O151    O    0.10313   0.35103   0.61961   1.000
    O152    O    0.56360   0.22814   0.65717   1.000
    O153    O    0.06356   0.22814   0.65719   1.000
    O154    O    0.60209   0.43014   0.65731   1.000
    O155    O    0.10207   0.43015   0.65734   1.000
    O156    O    0.54493   0.46279   0.69164   1.000
    O157    O    0.04491   0.46280   0.69166   1.000
    O158    O    0.11947   0.23058   0.69298   1.000
    O159    O    0.61950   0.23058   0.69298   1.000
    O160    O    0.96166   0.43223   0.70250   1.000
    O161    O    0.86859   0.43193   0.72816   1.000
    O162    O    0.93562   0.38022   0.72985   1.000
    O163    O    0.46165   0.43224   0.70252   1.000
    O164    O    0.36855   0.43198   0.72824   1.000
    O165    O    0.43559   0.38025   0.72988   1.000
    O166    O    0.70215   0.27188   0.70406   1.000
    O167    O    0.79543   0.29713   0.72898   1.000
    O168    O    0.72830   0.35054   0.73053   1.000
    O169    O    0.20211   0.27190   0.70407   1.000
    O170    O    0.29538   0.29717   0.72901   1.000
    O171    O    0.22825   0.35058   0.73058   1.000
    O172    O    0.78544   0.46217   0.76960   1.000
    O173    O    0.28539   0.46222   0.76970   1.000
    O174    O    0.87896   0.30807   0.76999   1.000
    O175    O    0.37891   0.30809   0.77002   1.000
    O176    O    0.93587   0.34246   0.77132   1.000
    O177    O    0.43584   0.34247   0.77133   1.000
    O178    O    0.72843   0.42948   0.77152   1.000
    O179    O    0.22838   0.42952   0.77160   1.000
    N180    N    0.08320   0.31563   0.00013   1.000
    O181    O    0.01018   0.31634   0.90476   1.000
    O182    O    0.15604   0.41152   0.09521   1.000
    N183    N    0.91666   0.00025   0.31567   1.000
    O184    O    0.98952   0.90484   0.31630   1.000
    O185    O    0.84387   0.09542   0.41160   1.000
    N186    N    0.25018   0.31522   0.31464   1.000
    O187    O    0.17746   0.41128   0.31576   1.000
    O188    O    0.32262   0.31617   0.41079   1.000
    N189    N    0.24969   0.68538   0.68540   1.000
    O190    O    0.17641   0.58942   0.68419   1.000
    O191    O    0.32243   0.68416   0.58924   1.000
    N192    N    0.41650   0.00041   0.31572   1.000
    O193    O    0.48917   0.90499   0.31635   1.000
    O194    O    0.34375   0.09556   0.41163   1.000
    N195    N    0.74972   0.68539   0.68540   1.000
    O196    O    0.67644   0.58942   0.68417   1.000
    O197    O    0.82252   0.68419   0.58926   1.000
    N198    N    0.75022   0.31522   0.31459   1.000
    O199    O    0.82264   0.31615   0.41075   1.000
    O200    O    0.67755   0.41132   0.31579   1.000
    N201    N    0.08306   0.68468   0.00013   1.000
    O202    O    0.15539   0.58873   0.90483   1.000
    O203    O    0.01022   0.68399   0.09549   1.000
    N204    N    0.58316   0.31556   0.00007   1.000
    O205    O    0.51014   0.31630   0.90473   1.000
    O206    O    0.65587   0.41146   0.09517   1.000
    N207    N    0.41651   0.00000   0.68463   1.000
    O208    O    0.34378   0.90485   0.58884   1.000
    O209    O    0.48920   0.09528   0.68388   1.000
    N210    N    0.58324   0.68464   0.99999   1.000
    O211    O    0.51060   0.68396   0.09535   1.000
    O212    O    0.65551   0.58869   0.90470   1.000
    N213    N    0.91650   0.99994   0.68453   1.000
    O214    O    0.84372   0.90479   0.58869   1.000
    O215    O    0.98918   0.09524   0.68382   1.000
loop_
    _geom_bond_atom_site_label_1
    _geom_bond_atom_site_label_2
    _geom_bond_distance
    _geom_bond_site_symmetry_2
    _ccdc_geom_bond_type
    Zr31   O84       0.64050      .   S
    Zr73   O84       0.64050      .   S
    Zr31   O85       0.63584      .   S
    Zr75   O85       0.63584      .   S
    Zr30   O86       0.64043      .   S
    Zr72   O86       0.64043      .   S
    Zr30   O87       0.63598      .   S
    Zr74   O87       0.63598      .   S
    Zr12   O88       0.64055      .   S
    Zr36   O88       0.64055      .   S
    Zr12   O89       0.63581      .   S
    Zr38   O89       0.63581      .   S
    Zr13   O90       0.64074      .   S
    Zr37   O90       0.64074      .   S
    Zr13   O91       0.63570      .   S
    Zr39   O91       0.63570      .   S
    Zr72   O92       0.98266      .   S
    Zr4    O92       0.98266      .   S
    Zr73   O93       0.98112      .   S
    Zr5    O93       0.98112      .   S
    Zr36   O94       0.98243      .   S
    Zr0    O94       0.98243      .   S
    Zr37   O95       0.98192      .   S
    Zr1    O95       0.98192      .   S
    Zr75   O96       0.98980      .   S
    Zr1    O96       0.98980      .   S
    Zr74   O97       0.98905      .   S
    Zr0    O97       0.98905      .   S
    Zr39   O98       0.99118      .   S
    Zr5    O98       0.99118      .   S
    Zr38   O99       0.98832      .   S
    Zr4    O99       0.98832      .   S
    Zr79   O100      0.98769      .   S
    Zr5    O100      0.98769      .   S
    Zr79   O101      0.63583      .   S
    Zr33   O101      0.63583      .   S
    Zr78   O102      0.99106      .   S
    Zr4    O102      0.99106      .   S
    Zr78   O103      0.63574      .   S
    Zr32   O103      0.63574      .   S
    Zr43   O104      0.99163      .   S
    Zr0    O104      0.99163      .   S
    Zr43   O105      0.63563      .   S
    Zr15   O105      0.63563      .   S
    Zr42   O106      0.99179  1_455   S
    Zr1    O106      0.99179      .   S
    Zr42   O107      0.63566      .   S
    Zr14   O107      0.63566      .   S
    Zr5    O108      0.98272      .   S
    Zr45   O108      0.98272      .   S
    Zr4    O109      0.98124      .   S
    Zr44   O109      0.98124      .   S
    Zr0    O110      0.98118      .   S
    Zr80   O110      0.98118      .   S
    Zr1    O111      0.98048      .   S
    Zr81   O111      0.98048      .   S
    Zr33   O112      0.64053      .   S
    Zr77   O112      0.64053      .   S
    Zr32   O113      0.64069      .   S
    Zr76   O113      0.64069      .   S
    Zr14   O114      0.64091      .   S
    Zr40   O114      0.64091      .   S
    Zr15   O115      0.64095      .   S
    Zr41   O115      0.64095      .   S
    Zr40   O116      0.98013      .   S
    Zr2    O116      0.98013      .   S
    Zr41   O117      0.98034      .   S
    Zr3    O117      0.98034      .   S
    Zr76   O118      0.98161      .   S
    Zr2    O118      0.98161      .   S
    Zr77   O119      0.98238      .   S
    Zr3    O119      0.98238      .   S
    Zr2    O120      0.99258      .   S
    Zr83   O120      0.99258  1_655   S
    Zr2    O121      0.98917      .   S
    Zr46   O121      0.98917      .   S
    Zr3    O122      0.99220      .   S
    Zr82   O122      0.99220      .   S
    Zr3    O123      0.98867      .   S
    Zr47   O123      0.98867      .   S
    Zr45   O124      0.64035      .   S
    Zr17   O124      0.64035      .   S
    Zr44   O125      0.64047      .   S
    Zr16   O125      0.64047      .   S
    Zr80   O126      0.64100      .   S
    Zr34   O126      0.64100      .   S
    Zr81   O127      0.64099      .   S
    Zr35   O127      0.64099      .   S
    Zr34   O128      0.63566      .   S
    Zr82   O128      0.63566      .   S
    Zr35   O129      0.63566      .   S
    Zr83   O129      0.63566      .   S
    Zr17   O130      0.63596      .   S
    Zr47   O130      0.63596      .   S
    Zr16   O131      0.63581      .   S
    Zr46   O131      0.63581      .   S
    Zr59   O132      0.63606      .   S
    Zr23   O132      0.63606      .   S
    Zr59   O133      0.98981      .   S
    Zr9    O133      0.98981      .   S
    Zr58   O134      0.63576      .   S
    Zr22   O134      0.63576      .   S
    Zr58   O135      0.98979      .   S
    Zr8    O135      0.98979      .   S
    Zr71   O136      0.63563      .   S
    Zr29   O136      0.63563      .   S
    Zr71   O137      0.99150  1_655   S
    Zr8    O137      0.99150      .   S
    Zr70   O138      0.63563      .   S
    Zr28   O138      0.63563      .   S
    Zr70   O139      0.99184      .   S
    Zr9    O139      0.99184      .   S
    Zr29   O140      0.64100      .   S
    Zr69   O140      0.64100      .   S
    Zr28   O141      0.64104      .   S
    Zr68   O141      0.64104      .   S
    Zr22   O142      0.64119      .   S
    Zr56   O142      0.64119      .   S
    Zr23   O143      0.64056      .   S
    Zr57   O143      0.64056      .   S
    Zr69   O144      0.98070      .   S
    Zr7    O144      0.98070      .   S
    Zr68   O145      0.98081      .   S
    Zr6    O145      0.98081      .   S
    Zr57   O146      0.98286      .   S
    Zr11   O146      0.98286      .   S
    Zr56   O147      0.98280      .   S
    Zr10   O147      0.98280      .   S
    Zr9    O148      0.98249      .   S
    Zr65   O148      0.98249      .   S
    Zr9    O149      0.98068      .   S
    Zr53   O149      0.98068      .   S
    Zr8    O150      0.98240      .   S
    Zr64   O150      0.98240      .   S
    Zr8    O151      0.98066      .   S
    Zr52   O151      0.98066      .   S
    Zr65   O152      0.64049      .   S
    Zr27   O152      0.64049      .   S
    Zr64   O153      0.64051      .   S
    Zr26   O153      0.64051      .   S
    Zr53   O154      0.64076      .   S
    Zr21   O154      0.64076      .   S
    Zr52   O155      0.64074      .   S
    Zr20   O155      0.64074      .   S
    Zr21   O156      0.63587      .   S
    Zr55   O156      0.63587      .   S
    Zr20   O157      0.63588      .   S
    Zr54   O157      0.63588      .   S
    Zr26   O158      0.63582      .   S
    Zr66   O158      0.63582      .   S
    Zr27   O159      0.63584      .   S
    Zr67   O159      0.63584      .   S
    Zr7    O160      0.99173      .   S
    Zr54   O160      0.99173  1_455   S
    Zr7    O161      0.98939      .   S
    Zr63   O161      0.98939      .   S
    Zr7    O162      0.98194      .   S
    Zr49   O162      0.98194      .   S
    Zr6    O163      0.99181      .   S
    Zr55   O163      0.99181      .   S
    Zr6    O164      0.98967      .   S
    Zr62   O164      0.98967      .   S
    Zr6    O165      0.98196      .   S
    Zr48   O165      0.98196      .   S
    Zr11   O166      0.98796      .   S
    Zr67   O166      0.98796      .   S
    Zr11   O167      0.99036      .   S
    Zr51   O167      0.99036      .   S
    Zr11   O168      0.98158      .   S
    Zr61   O168      0.98158      .   S
    Zr10   O169      0.98812      .   S
    Zr66   O169      0.98812      .   S
    Zr10   O170      0.99037      .   S
    Zr50   O170      0.99037      .   S
    Zr10   O171      0.98159      .   S
    Zr60   O171      0.98159      .   S
    Zr63   O172      0.63576      .   S
    Zr25   O172      0.63576      .   S
    Zr62   O173      0.63580      .   S
    Zr24   O173      0.63580      .   S
    Zr51   O174      0.63578      .   S
    Zr19   O174      0.63578      .   S
    Zr50   O175      0.63577      .   S
    Zr18   O175      0.63577      .   S
    Zr49   O176      0.64070      .   S
    Zr19   O176      0.64070      .   S
    Zr48   O177      0.64069      .   S
    Zr18   O177      0.64069      .   S
    Zr61   O178      0.64076      .   S
    Zr25   O178      0.64076      .   S
    Zr60   O179      0.64076      .   S
    Zr24   O179      0.64076      .   S
    N180   O181      2.34004  1_554   S
    Zr19   O181      3.08134  1_655   S
    N180   O182      2.33956      .   S
    Zr30   O182      3.08105      .   S
    N183   O184      2.33969  1_545   S
    Zr32   O184      3.08087  1_455   S
    N183   O185      2.34024      .   S
    Zr23   O185      3.08185      .   S
    N186   O187      2.33450      .   S
    Zr14   O187      3.07496      .   S
    N186   O188      2.33489      .   S
    Zr28   O188      3.07585      .   S
    N189   O190      2.33657      .   S
    Zr20   O190      3.07795      .   S
    N189   O191      2.33569      .   S
    Zr34   O191      3.07687      .   S
    N192   O193      2.33831  1_545   S
    Zr33   O193      3.07925      .   S
    N192   O194      2.33950      .   S
    Zr22   O194      3.08065      .   S
    N195   O196      2.33675      .   S
    Zr21   O196      3.07818      .   S
    N195   O197      2.33572      .   S
    Zr35   O197      3.07688      .   S
    N198   O199      2.33507      .   S
    Zr29   O199      3.07601      .   S
    N198   O200      2.33405      .   S
    Zr15   O200      3.07448      .   S
    N201   O202      2.33816  1_554   S
    Zr24   O202      3.07918      .   S
    N201   O203      2.33908      .   S
    Zr13   O203      3.08043  1_655   S
    N204   O205      2.33975  1_554   S
    Zr18   O205      3.08098      .   S
    N204   O206      2.33890      .   S
    Zr31   O206      3.08026      .   S
    N207   O208      2.33847  1_545   S
    Zr16   O208      3.07953      .   S
    N207   O209      2.33782      .   S
    Zr27   O209      3.07881      .   S
    N210   O211      2.33748  1_556   S
    Zr12   O211      3.07850      .   S
    N210   O212      2.33763      .   S
    Zr25   O212      3.07853      .   S
    N213   O214      2.33921      .   S
    Zr17   O214      3.08010      .   S
    N213   O215      2.33782  1_565   S
    Zr26   O215      3.07880  1_455   S
