# CIF file generated by openbabel 2.4.90, see http://openbabel.sf.net
data_I
_chemical_name_common ''
_cell_length_a 8.837
_cell_length_b 15.677
_cell_length_c 19.444
_cell_angle_alpha 90.035
_cell_angle_beta 90.012
_cell_angle_gamma 90.146
_space_group_name_H-M_alt 'P 1'
_space_group_name_Hall 'P 1'
loop_
    _symmetry_equiv_pos_as_xyz
    x,y,z
loop_
    _atom_site_label
    _atom_site_type_symbol
    _atom_site_fract_x
    _atom_site_fract_y
    _atom_site_fract_z
    _atom_site_occupancy
    H0      H    0.72673   0.13415   0.49569   1.000
    H1      H    0.14460   0.98661   0.31258   1.000
    H2      H    0.76983   0.29093   0.49415   1.000
    H3      H    0.83802   0.88827   0.41785   1.000
    H4      H    0.78392   0.98880   0.38476   1.000
    H5      H    0.14105   0.96529   0.18500   1.000
    H6      H    0.36783   0.17402   0.34713   1.000
    H7      H    0.42638   0.32786   0.35201   1.000
    H8      H    0.60394   0.00616   0.17049   1.000
    H9      H    0.62651   0.03284   0.29600   1.000
    H10     H    0.28667   0.02658   0.41216   1.000
    H11     H    0.69826   0.91975   0.53006   1.000
    H12     H    0.77359   0.86576   0.99561   1.000
    H13     H    0.35465   0.01411   0.81268   1.000
    H14     H    0.73252   0.70881   0.00000   1.000
    H15     H    0.66122   0.11230   0.91852   1.000
    H16     H    0.71554   0.01207   0.88484   1.000
    H17     H    0.35827   0.03515   0.68509   1.000
    H18     H    0.13277   0.82683   0.84707   1.000
    H19     H    0.07624   0.67280   0.85216   1.000
    H20     H    0.89549   0.99393   0.67042   1.000
    H21     H    0.87285   0.96753   0.79594   1.000
    H22     H    0.21271   0.97401   0.91213   1.000
    H23     H    0.80121   0.08034   0.03044   1.000
    H24     H    0.27301   0.63419   0.00220   1.000
    H25     H    0.85592   0.48805   0.18397   1.000
    H26     H    0.23206   0.79100   0.00346   1.000
    H27     H    0.15830   0.38862   0.07901   1.000
    H28     H    0.21477   0.48853   0.11304   1.000
    H29     H    0.86168   0.46657   0.31151   1.000
    H30     H    0.63305   0.67420   0.15038   1.000
    H31     H    0.57669   0.82810   0.14516   1.000
    H32     H    0.39887   0.50544   0.32764   1.000
    H33     H    0.37406   0.53211   0.20224   1.000
    H34     H    0.71246   0.52742   0.08506   1.000
    H35     H    0.29867   0.42068   0.96718   1.000
    H36     H    0.22908   0.36548   0.50234   1.000
    H37     H    0.64712   0.51214   0.68429   1.000
    H38     H    0.26852   0.20854   0.50350   1.000
    H39     H    0.34505   0.61124   0.57885   1.000
    H40     H    0.28861   0.51134   0.61279   1.000
    H41     H    0.64188   0.53330   0.81191   1.000
    H42     H    0.86857   0.32665   0.65038   1.000
    H43     H    0.92344   0.17259   0.64509   1.000
    H44     H    0.10490   0.49492   0.82757   1.000
    H45     H    0.12918   0.46855   0.70209   1.000
    H46     H    0.79041   0.47295   0.58521   1.000
    H47     H    0.20441   0.57907   0.46697   1.000
    C48     C    0.68409   0.95570   0.48246   1.000
    C49     C    0.38690   0.00989   0.31544   1.000
    C50     C    0.55506   0.00013   0.47789   1.000
    C51     C    0.54271   0.13966   0.42116   1.000
    C52     C    0.65753   0.17480   0.46306   1.000
    C53     C    0.24840   0.98995   0.28243   1.000
    C54     C    0.68178   0.26199   0.46251   1.000
    C55     C    0.81099   0.95457   0.43238   1.000
    C56     C    0.24656   0.97711   0.21241   1.000
    C57     C    0.45832   0.19670   0.38033   1.000
    C58     C    0.49069   0.28293   0.38321   1.000
    C59     C    0.50513   0.00117   0.20391   1.000
    C60     C    0.51754   0.01594   0.27381   1.000
    C61     C    0.81534   0.04455   0.98275   1.000
    C62     C    0.11239   0.99070   0.81546   1.000
    C63     C    0.94438   0.00014   0.97803   1.000
    C64     C    0.95768   0.86073   0.92113   1.000
    C65     C    0.84330   0.82528   0.96304   1.000
    C66     C    0.25087   0.01064   0.78249   1.000
    C67     C    0.82020   0.73799   0.96263   1.000
    C68     C    0.68842   0.04592   0.93265   1.000
    C69     C    0.25275   0.02331   0.71247   1.000
    C70     C    0.04265   0.80391   0.88032   1.000
    C71     C    0.01143   0.71756   0.88332   1.000
    C72     C    0.99425   0.99906   0.70387   1.000
    C73     C    0.98180   0.98446   0.77378   1.000
    C74     C    0.31375   0.45618   0.01497   1.000
    C75     C    0.61343   0.51011   0.18192   1.000
    C76     C    0.44328   0.50055   0.01954   1.000
    C77     C    0.45749   0.63976   0.07652   1.000
    C78     C    0.34292   0.67487   0.03468   1.000
    C79     C    0.75256   0.49080   0.21445   1.000
    C80     C    0.31990   0.76210   0.03503   1.000
    C81     C    0.18699   0.45497   0.06513   1.000
    C82     C    0.75567   0.47789   0.28444   1.000
    C83     C    0.54277   0.69685   0.11719   1.000
    C84     C    0.51164   0.78313   0.11412   1.000
    C85     C    0.49713   0.50085   0.29387   1.000
    C86     C    0.48348   0.51562   0.22402   1.000
    C87     C    0.18939   0.54372   0.51483   1.000
    C88     C    0.88969   0.49038   0.68202   1.000
    C89     C    0.05969   0.49956   0.51957   1.000
    C90     C    0.04454   0.36053   0.57660   1.000
    C91     C    0.15877   0.32504   0.53478   1.000
    C92     C    0.75064   0.50946   0.71469   1.000
    C93     C    0.18094   0.23774   0.53508   1.000
    C94     C    0.31631   0.54490   0.56491   1.000
    C95     C    0.74781   0.52220   0.78472   1.000
    C96     C    0.95868   0.30373   0.61721   1.000
    C97     C    0.98896   0.21735   0.61410   1.000
    C98     C    0.00647   0.49948   0.79389   1.000
    C99     C    0.01983   0.48488   0.72400   1.000
    N100    N    0.38692   0.02475   0.38446   1.000
    N101    N    0.51793   0.05210   0.41873   1.000
    N102    N    0.60033   0.31677   0.42342   1.000
    N103    N    0.37267   0.98157   0.17243   1.000
    N104    N    0.11235   0.97607   0.88450   1.000
    N105    N    0.98153   0.94838   0.91870   1.000
    N106    N    0.90239   0.68340   0.92364   1.000
    N107    N    0.12670   0.01867   0.67244   1.000
    N108    N    0.61243   0.52479   0.11288   1.000
    N109    N    0.48130   0.55217   0.07891   1.000
    N110    N    0.40240   0.81695   0.07387   1.000
    N111    N    0.63020   0.48174   0.32486   1.000
    N112    N    0.89060   0.47596   0.61293   1.000
    N113    N    0.02159   0.44821   0.57902   1.000
    N114    N    0.09788   0.18317   0.57386   1.000
    N115    N    0.87350   0.51839   0.82502   1.000
loop_
    _geom_bond_atom_site_label_1
    _geom_bond_atom_site_label_2
    _geom_bond_distance
    _geom_bond_site_symmetry_2
    _ccdc_geom_bond_type
    H14    C67       1.15603  1_554   S
    H24    C78       1.08844      .   S
    H26    C80       1.08932      .   S
    C74    C76       1.34075      .   S
    C74    C81       1.48554      .   S
    C74    H35       1.09082  1_554   S
    C76    N109      1.44834      .   S
    H23    C61       1.09091  1_554   S
    C78    C80       1.38302      .   S
    C78    C77       1.41166      .   S
    C80    N110      1.35542      .   S
    C81    H27       1.10363      .   S
    C81    H28       1.09695      .   S
    N110   C84       1.35211      .   S
    C77    N109      1.39052      .   S
    C77    C83       1.41065      .   S
    N109   N108      1.40207      .   S
    H34    N108      1.03717      .   S
    N108   C75       1.36220      .   S
    C84    C83       1.38224      .   S
    C84    H31       1.09056      .   S
    C83    H30       1.08651      .   S
    H8     C59       1.09119      .   S
    N103   C59       1.35527  1_565   S
    N103   C56       1.36059      .   S
    C75    C79       1.41606      .   S
    C75    C86       1.41320      .   S
    H25    C79       1.08995      .   S
    H5     C56       1.08932      .   S
    H33    C86       1.08734      .   S
    C59    C60       1.38291      .   S
    C56    C53       1.37619      .   S
    C79    C82       1.37609      .   S
    C86    C85       1.38319      .   S
    C60    H9        1.08725      .   S
    C60    C49       1.41319      .   S
    C53    H1        1.08995      .   S
    C53    C49       1.41600  1_565   S
    C82    H29       1.08947      .   S
    C82    N111      1.36067      .   S
    C85    N111      1.35554      .   S
    C85    H32       1.09123      .   S
    C49    N100      1.36181      .   S
    H6     C57       1.08652      .   S
    H7     C58       1.09055      .   S
    C57    C58       1.38219      .   S
    C57    C51       1.41071      .   S
    C58    N102      1.35206      .   S
    N100   H10       1.03730      .   S
    N100   N101      1.40182      .   S
    H4     C55       1.09709      .   S
    H3     C55       1.10357      .   S
    N101   C51       1.39026      .   S
    N101   C50       1.44807      .   S
    C51    C52       1.41165      .   S
    N102   C54       1.35543      .   S
    C55    C48       1.48547      .   S
    C54    C52       1.38314      .   S
    C54    H2        1.08965      .   S
    C52    H0        1.08850      .   S
    H47    C87       1.09124      .   S
    C50    C48       1.34066  1_545   S
    C48    H11       1.09129      .   S
    H36    C91       1.08843      .   S
    H38    C93       1.08962      .   S
    C87    C89       1.34068      .   S
    C87    C94       1.48530      .   S
    C89    N113      1.44847      .   S
    C91    C93       1.38301      .   S
    C91    C90       1.41154      .   S
    C93    N114      1.35540      .   S
    C94    H39       1.10366      .   S
    C94    H40       1.09694      .   S
    N114   C97       1.35207  1_455   S
    C90    N113      1.39077      .   S
    C90    C96       1.41059  1_455   S
    N113   N112      1.40226  1_455   S
    H46    N112      1.03734      .   S
    N112   C88       1.36220      .   S
    C97    C96       1.38225      .   S
    C97    H43       1.09056      .   S
    C96    H42       1.08652      .   S
    H20    C72       1.09120      .   S
    N107   C72       1.35520  1_445   S
    N107   C69       1.36056      .   S
    C88    C92       1.41603      .   S
    C88    C99       1.41298  1_655   S
    H37    C92       1.08998      .   S
    H17    C69       1.08934      .   S
    H45    C99       1.08728      .   S
    C72    C73       1.38296      .   S
    C69    C66       1.37617      .   S
    C92    C95       1.37621      .   S
    C99    C98       1.38300      .   S
    C73    H21       1.08725      .   S
    C73    C62       1.41311  1_655   S
    C66    H13       1.08997      .   S
    C66    C62       1.41599  1_545   S
    C95    H41       1.08954      .   S
    C95    N115      1.36071      .   S
    C98    N115      1.35533  1_455   S
    C98    H44       1.09122      .   S
    C62    N104      1.36192      .   S
    H18    C70       1.08649      .   S
    H19    C71       1.09055      .   S
    C70    C71       1.38212      .   S
    C70    C64       1.41063  1_455   S
    C71    N106      1.35201  1_455   S
    N104   H22       1.03734      .   S
    N104   N105      1.40196  1_455   S
    H16    C68       1.09705      .   S
    H15    C68       1.10360      .   S
    N105   C64       1.39042      .   S
    N105   C63       1.44820  1_565   S
    C64    C65       1.41162      .   S
    N106   C67       1.35551      .   S
    C68    C61       1.48555      .   S
    C67    C65       1.38312      .   S
    C65    H12       1.08853      .   S
    C63    C61       1.34071      .   S
