# CIF file generated by openbabel 2.4.90, see http://openbabel.sf.net
data_I
_chemical_name_common ''
_cell_length_a 8.837
_cell_length_b 15.677
_cell_length_c 19.444
_cell_angle_alpha 90.035
_cell_angle_beta 90.012
_cell_angle_gamma 90.146
_space_group_name_H-M_alt 'P 1'
_space_group_name_Hall 'P 1'
loop_
    _symmetry_equiv_pos_as_xyz
    x,y,z
loop_
    _atom_site_label
    _atom_site_type_symbol
    _atom_site_fract_x
    _atom_site_fract_y
    _atom_site_fract_z
    _atom_site_occupancy
    Zn0     Zn   0.13825   0.05270   0.57251   1.000
    Zn1     Zn   0.64321   0.44711   0.42461   1.000
    Zn2     Zn   0.86110   0.55300   0.92482   1.000
    Zn3     Zn   0.36131   0.94733   0.07250   1.000
    C4      C    0.95866   0.99233   0.46196   1.000
    C5      C    0.44038   0.00078   0.53551   1.000
    C6      C    0.54084   0.00786   0.96201   1.000
    C7      C    0.05916   0.00000   0.03561   1.000
    C8      C    0.04037   0.49375   0.03565   1.000
    C9      C    0.55690   0.50192   0.96148   1.000
    C10     C    0.46294   0.50613   0.53541   1.000
    C11     C    0.94573   0.49811   0.46166   1.000
    O12     O    0.96040   0.00039   0.52837   1.000
    O13     O    0.06267   0.01168   0.42170   1.000
    O14     O    0.45683   0.95652   0.58759   1.000
    O15     O    0.32818   0.05293   0.52262   1.000
    O16     O    0.53891   0.00000   0.02838   1.000
    O17     O    0.43705   0.98838   0.92163   1.000
    O18     O    0.04288   0.04353   0.08777   1.000
    O19     O    0.17125   0.94713   0.02261   1.000
    O20     O    0.03784   0.50029   0.96917   1.000
    O21     O    0.93787   0.51514   0.07597   1.000
    O22     O    0.53752   0.45949   0.90855   1.000
    O23     O    0.67128   0.55263   0.97492   1.000
    O24     O    0.46575   0.49963   0.46891   1.000
    O25     O    0.56526   0.48474   0.57584   1.000
    O26     O    0.96398   0.54070   0.40879   1.000
    O27     O    0.83194   0.44703   0.47515   1.000
loop_
    _geom_bond_atom_site_label_1
    _geom_bond_atom_site_label_2
    _geom_bond_distance
    _geom_bond_site_symmetry_2
    _ccdc_geom_bond_type
    O19    C7        1.31763  1_565   S
    O19    Zn3       1.93946      .   S
    O16    Zn3       1.96868  1_545   S
    O16    C6        1.29655  1_554   S
    C7     O18       1.23073      .   S
    C8     O21       1.24462  1_455   S
    C8     O20       1.29687  1_554   S
    O26    C11       1.23666      .   S
    O13    C4        1.24456  1_445   S
    Zn1    O24       1.97114      .   S
    Zn1    O27       1.93565      .   S
    C11    O27       1.31045      .   S
    C4     O12       1.29749  1_565   S
    O24    C10       1.29724      .   S
    O15    C5        1.31097      .   S
    O15    Zn0       1.93879      .   S
    O12    Zn0       1.96756  1_655   S
    C10    O25       1.24478      .   S
    C5     O14       1.23655  1_545   S
    O22    C9        1.23674      .   S
    O17    C6        1.24460  1_565   S
    Zn2    O20       1.96786  1_655   S
    Zn2    O23       1.93999      .   S
    C9     O23       1.31048      .   S
