# CIF file generated by openbabel 2.4.90, see http://openbabel.sf.net
data_I
_chemical_name_common ''
_cell_length_a 8.837
_cell_length_b 15.677
_cell_length_c 19.444
_cell_angle_alpha 90.035
_cell_angle_beta 90.012
_cell_angle_gamma 90.146
_space_group_name_H-M_alt 'P 1'
_space_group_name_Hall 'P 1'
loop_
    _symmetry_equiv_pos_as_xyz
    x,y,z
loop_
    _atom_site_label
    _atom_site_type_symbol
    _atom_site_fract_x
    _atom_site_fract_y
    _atom_site_fract_z
    _atom_site_occupancy
    C0      C    0.95866   0.99233   0.46196   1.000
    C1      C    0.44038   0.00078   0.53551   1.000
    C2      C    0.54084   0.00786   0.96201   1.000
    C3      C    0.05916   0.00000   0.03561   1.000
    C4      C    0.04037   0.49375   0.03565   1.000
    C5      C    0.55690   0.50192   0.96148   1.000
    C6      C    0.46294   0.50613   0.53541   1.000
    C7      C    0.94573   0.49811   0.46166   1.000
