# CIF file generated by openbabel 2.4.90, see http://openbabel.sf.net
data_I
_chemical_name_common ''
_cell_length_a 8.837
_cell_length_b 15.677
_cell_length_c 19.444
_cell_angle_alpha 90.035
_cell_angle_beta 90.012
_cell_angle_gamma 90.146
_space_group_name_H-M_alt 'P 1'
_space_group_name_Hall 'P 1'
loop_
    _symmetry_equiv_pos_as_xyz
    x,y,z
loop_
    _atom_site_label
    _atom_site_type_symbol
    _atom_site_fract_x
    _atom_site_fract_y
    _atom_site_fract_z
    _atom_site_occupancy
    N0      N    0.48058   0.57187   0.13232   1.000
    N1      N    0.98019   0.92877   0.86538   1.000
    N2      N    0.02195   0.42833   0.63235   1.000
    N3      N    0.51991   0.07162   0.36510   1.000
    Zr4     Zr   0.30734   0.99060   0.01865   1.000
    O5      O    0.36928   0.85880   0.06070   1.000
    O6      O    0.37539   0.00432   0.13122   1.000
    O7      O    0.55237   0.98422   0.96250   1.000
    O8      O    0.14916   0.97751   0.97737   1.000
    Zr9     Zr   0.19220   0.00962   0.51861   1.000
    O10     O    0.12426   0.99592   0.63127   1.000
    O11     O    0.13110   0.14137   0.56069   1.000
    O12     O    0.94728   0.01608   0.46237   1.000
    O13     O    0.35050   0.02283   0.47725   1.000
    Zr14    Zr   0.69697   0.48906   0.47862   1.000
    O15     O    0.45138   0.48299   0.53494   1.000
    O16     O    0.85465   0.47632   0.52005   1.000
    O17     O    0.63390   0.35792   0.43659   1.000
    O18     O    0.62781   0.50361   0.36608   1.000
    Zr19    Zr   0.80613   0.51089   0.97865   1.000
    O20     O    0.64823   0.52372   0.02003   1.000
    O21     O    0.05163   0.51700   0.03500   1.000
    O22     O    0.86855   0.64219   0.93673   1.000
    O23     O    0.87537   0.49645   0.86614   1.000
loop_
    _geom_bond_atom_site_label_1
    _geom_bond_atom_site_label_2
    _geom_bond_distance
    _geom_bond_site_symmetry_2
    _ccdc_geom_bond_type
    Zr4    O5        2.29021      .   S
    N0     O5        4.81357      .   S
    Zr4    O6        2.27967  1_565   S
    N3     O6        4.83840      .   S
    Zr4    O7        2.42745  1_554   S
    N1     O7        4.31650      .   S
    Zr4    O8        1.62417  1_554   S
    N1     O8        2.74700  1_655   S
    Zr9    O10       2.28160  1_545   S
    N1     O10       4.84279  1_655   S
    Zr9    O11       2.28718      .   S
    N2     O11       4.80876      .   S
    Zr9    O12       2.42702  1_455   S
    N3     O12       4.31445      .   S
    Zr9    O13       1.62658      .   S
    N3     O13       2.75302      .   S
    Zr14   O15       2.43278      .   S
    N2     O15       4.32568      .   S
    Zr14   O16       1.62221      .   S
    N2     O16       2.74335  1_455   S
    Zr14   O17       2.27975      .   S
    N3     O17       4.80219      .   S
    Zr14   O18       2.28373      .   S
    N0     O18       4.84843      .   S
    Zr19   O20       1.62373  1_556   S
    N0     O20       2.74526      .   S
    Zr19   O21       2.43194  1_656   S
    N0     O21       4.32063      .   S
    Zr19   O22       2.28080      .   S
    N1     O22       4.80297      .   S
    Zr19   O23       2.28296      .   S
    N2     O23       4.84627  1_455   S
