# CIF file generated by openbabel 2.4.90, see http://openbabel.sf.net
data_I
_chemical_name_common ''
_cell_length_a 8.837
_cell_length_b 15.677
_cell_length_c 19.444
_cell_angle_alpha 90.035
_cell_angle_beta 90.012
_cell_angle_gamma 90.146
_space_group_name_H-M_alt 'P 1'
_space_group_name_Hall 'P 1'
loop_
    _symmetry_equiv_pos_as_xyz
    x,y,z
loop_
    _atom_site_label
    _atom_site_type_symbol
    _atom_site_fract_x
    _atom_site_fract_y
    _atom_site_fract_z
    _atom_site_occupancy
    Zr0     Zr   0.36131   0.94733   0.07250   1.000
    Zr1     Zr   0.13825   0.05270   0.57251   1.000
    Zr2     Zr   0.64321   0.44711   0.42461   1.000
    Zr3     Zr   0.86110   0.55300   0.92482   1.000
    Zr4     Zr   0.95866   0.99233   0.46196   1.000
    Zr5     Zr   0.44038   0.00078   0.53551   1.000
    Zr6     Zr   0.54084   0.00786   0.96201   1.000
    Zr7     Zr   0.05916   0.00000   0.03561   1.000
    Zr8     Zr   0.04037   0.49375   0.03565   1.000
    Zr9     Zr   0.55690   0.50192   0.96148   1.000
    Zr10    Zr   0.46294   0.50613   0.53541   1.000
    Zr11    Zr   0.94573   0.49811   0.46166   1.000
    Zr12    Zr   0.96040   0.00039   0.52837   1.000
    Zr13    Zr   0.06267   0.01168   0.42170   1.000
    Zr14    Zr   0.45683   0.95652   0.58759   1.000
    Zr15    Zr   0.32818   0.05293   0.52262   1.000
    Zr16    Zr   0.53891   0.00000   0.02838   1.000
    Zr17    Zr   0.43705   0.98838   0.92163   1.000
    Zr18    Zr   0.04288   0.04353   0.08777   1.000
    Zr19    Zr   0.17125   0.94713   0.02261   1.000
    Zr20    Zr   0.03784   0.50029   0.96917   1.000
    Zr21    Zr   0.93787   0.51514   0.07597   1.000
    Zr22    Zr   0.53752   0.45949   0.90855   1.000
    Zr23    Zr   0.67128   0.55263   0.97492   1.000
    Zr24    Zr   0.46575   0.49963   0.46891   1.000
    Zr25    Zr   0.56526   0.48474   0.57584   1.000
    Zr26    Zr   0.96398   0.54070   0.40879   1.000
    Zr27    Zr   0.83194   0.44703   0.47515   1.000
    O28     O    0.11520   0.97357   0.02911   1.000
    O29     O    0.26628   0.94723   0.04756   1.000
    O30     O    0.45011   0.97366   0.05044   1.000
    O31     O    0.53987   0.00393   0.99520   1.000
    O32     O    0.05102   0.02176   0.06169   1.000
    O33     O    0.98912   0.50445   0.05581   1.000
    O34     O    0.03910   0.49702   0.00241   1.000
    O35     O    0.95485   0.51940   0.43523   1.000
    O36     O    0.01066   0.00201   0.44183   1.000
    O37     O    0.55448   0.47337   0.44676   1.000
    O38     O    0.73757   0.44707   0.44988   1.000
    O39     O    0.88884   0.47257   0.46841   1.000
    O40     O    0.95953   0.99636   0.49516   1.000
    O41     O    0.46434   0.50288   0.50216   1.000
    O42     O    0.38428   0.02685   0.52906   1.000
    O43     O    0.23321   0.05281   0.54757   1.000
    O44     O    0.04933   0.02654   0.55044   1.000
    O45     O    0.51410   0.49543   0.55563   1.000
    O46     O    0.44860   0.97865   0.56155   1.000
    O47     O    0.54721   0.48071   0.93502   1.000
    O48     O    0.48894   0.99812   0.94182   1.000
    O49     O    0.94947   0.52664   0.94699   1.000
    O50     O    0.76619   0.55281   0.94987   1.000
    O51     O    0.61409   0.52727   0.96820   1.000
    N52     N    0.48058   0.57187   0.13232   1.000
    O53     O    0.43122   0.72701   0.10275   1.000
    O54     O    0.29713   0.52312   0.09135   1.000
    O55     O    0.55864   0.51815   0.25353   1.000
    O56     O    0.49033   0.53655   0.06141   1.000
    N57     N    0.98019   0.92877   0.86538   1.000
    O58     O    0.99098   0.96442   0.93610   1.000
    O59     O    0.93097   0.77349   0.89481   1.000
    O60     O    0.05633   0.98223   0.74393   1.000
    O61     O    0.79741   0.97783   0.90636   1.000
    N62     N    0.02195   0.42833   0.63235   1.000
    O63     O    0.07000   0.27313   0.60277   1.000
    O64     O    0.94462   0.48201   0.75364   1.000
    O65     O    0.20579   0.47692   0.59126   1.000
    O66     O    0.01233   0.46358   0.56148   1.000
    N67     N    0.51991   0.07162   0.36510   1.000
    O68     O    0.70236   0.02253   0.40613   1.000
    O69     O    0.50881   0.03604   0.43590   1.000
    O70     O    0.44345   0.01803   0.24378   1.000
    O71     O    0.57084   0.22678   0.39456   1.000
loop_
    _geom_bond_atom_site_label_1
    _geom_bond_atom_site_label_2
    _geom_bond_distance
    _geom_bond_site_symmetry_2
    _ccdc_geom_bond_type
    Zr19   O28       0.65882      .   S
    Zr7    O28       0.65882  1_545   S
    Zr19   O29       0.96973      .   S
    Zr0    O29       0.96973      .   S
    Zr16   O30       0.98434  1_545   S
    Zr0    O30       0.98434      .   S
    Zr16   O31       0.64828  1_554   S
    Zr6    O31       0.64828      .   S
    Zr7    O32       0.61536      .   S
    Zr18   O32       0.61536      .   S
    Zr8    O33       0.62231  1_455   S
    Zr21   O33       0.62231      .   S
    Zr8    O34       0.64844      .   S
    Zr20   O34       0.64844  1_556   S
    Zr26   O35       0.61833      .   S
    Zr11   O35       0.61833      .   S
    Zr13   O36       0.62228      .   S
    Zr4    O36       0.62228  1_665   S
    Zr2    O37       0.98557      .   S
    Zr24   O37       0.98557      .   S
    Zr2    O38       0.96782      .   S
    Zr27   O38       0.96782      .   S
    Zr11   O39       0.65523      .   S
    Zr27   O39       0.65523      .   S
    Zr4    O40       0.64875      .   S
    Zr12   O40       0.64875  1_545   S
    Zr24   O41       0.64862      .   S
    Zr10   O41       0.64862      .   S
    Zr15   O42       0.65549      .   S
    Zr5    O42       0.65549      .   S
    Zr15   O43       0.96940      .   S
    Zr1    O43       0.96940      .   S
    Zr12   O44       0.98378  1_655   S
    Zr1    O44       0.98378      .   S
    Zr10   O45       0.62239      .   S
    Zr25   O45       0.62239      .   S
    Zr5    O46       0.61827  1_545   S
    Zr14   O46       0.61827      .   S
    Zr22   O47       0.61837      .   S
    Zr9    O47       0.61837      .   S
    Zr17   O48       0.62230      .   S
    Zr6    O48       0.62230  1_545   S
    Zr3    O49       0.98393      .   S
    Zr20   O49       0.98393  1_455   S
    Zr3    O50       0.96999      .   S
    Zr23   O50       0.96999      .   S
    Zr9    O51       0.65524      .   S
    Zr23   O51       0.65524      .   S
    N52    O53       2.53822      .   S
    Zr0    O53       3.55960      .   S
    N52    O54       1.95937      .   S
    Zr8    O54       2.55469      .   S
    N52    O55       2.59698      .   S
    Zr2    O55       3.58784      .   S
    N52    O56       1.48798      .   S
    Zr9    O56       2.10170  1_556   S
    N57    O58       1.48693      .   S
    Zr7    O58       2.10103  1_444   S
    N57    O59       2.53758      .   S
    Zr3    O59       3.55834      .   S
    N57    O60       2.59462  1_655   S
    Zr1    O60       3.58539  1_545   S
    N57    O61       1.95994      .   S
    Zr6    O61       2.55722  1_545   S
    N62    O63       2.53664      .   S
    Zr1    O63       3.55810      .   S
    N62    O64       2.59570  1_455   S
    Zr3    O64       3.58645      .   S
    N62    O65       1.96292      .   S
    Zr10   O65       2.55914      .   S
    N62    O66       1.48749      .   S
    Zr11   O66       2.09974  1_655   S
    N67    O68       1.95832      .   S
    Zr4    O68       2.55673  1_565   S
    N67    O69       1.48881      .   S
    Zr5    O69       2.10301      .   S
    N67    O70       2.59240      .   S
    Zr0    O70       3.58292  1_565   S
    N67    O71       2.53771      .   S
    Zr2    O71       3.55910      .   S
