# CIF file generated by openbabel 2.4.90, see http://openbabel.sf.net
data_I
_chemical_name_common ''
_cell_length_a 20.472
_cell_length_b 12.631
_cell_length_c 15.386
_cell_angle_alpha 90.011
_cell_angle_beta 90.002
_cell_angle_gamma 90.012
_space_group_name_H-M_alt 'P 1'
_space_group_name_Hall 'P 1'
loop_
    _symmetry_equiv_pos_as_xyz
    x,y,z
loop_
    _atom_site_label
    _atom_site_type_symbol
    _atom_site_fract_x
    _atom_site_fract_y
    _atom_site_fract_z
    _atom_site_occupancy
    Cd0     Cd   0.50000   0.50002   0.99999   1.000
    Cd1     Cd   0.25000   0.50002   0.49990   1.000
    Cd2     Cd   0.75000   0.50002   0.49990   1.000
    Cd3     Cd   0.00000   0.00001   0.49998   1.000
    Cd4     Cd   0.50000   0.00001   0.49997   1.000
    Cd5     Cd   0.25000   0.00001   0.99999   1.000
    Cd6     Cd   0.75000   0.00002   0.99999   1.000
    Cd7     Cd   1.00000   0.50002   0.00000   1.000
