# CIF file generated by openbabel 2.4.90, see http://openbabel.sf.net
data_I
_chemical_name_common ''
_cell_length_a 20.472
_cell_length_b 12.631
_cell_length_c 15.386
_cell_angle_alpha 90.011
_cell_angle_beta 90.002
_cell_angle_gamma 90.012
_space_group_name_H-M_alt 'P 1'
_space_group_name_Hall 'P 1'
loop_
    _symmetry_equiv_pos_as_xyz
    x,y,z
loop_
    _atom_site_label
    _atom_site_type_symbol
    _atom_site_fract_x
    _atom_site_fract_y
    _atom_site_fract_z
    _atom_site_occupancy
    N0      N    0.79426   0.88421   0.34846   1.000
    N1      N    0.29426   0.88421   0.34846   1.000
    N2      N    0.95573   0.38419   0.34848   1.000
    N3      N    0.79426   0.61582   0.84844   1.000
    N4      N    0.70575   0.38422   0.15151   1.000
    N5      N    0.20574   0.38422   0.15151   1.000
    N6      N    0.04427   0.61584   0.65147   1.000
    N7      N    0.54427   0.61584   0.65146   1.000
    N8      N    0.95573   0.11586   0.84846   1.000
    N9      N    0.45573   0.11586   0.84846   1.000
    N10     N    0.20574   0.11582   0.65147   1.000
    N11     N    0.70574   0.11583   0.65148   1.000
    N12     N    0.29426   0.61581   0.84844   1.000
    N13     N    0.45573   0.38419   0.34848   1.000
    N14     N    0.04427   0.88417   0.15148   1.000
    N15     N    0.54427   0.88417   0.15148   1.000
    Zr16    Zr   0.50000   0.00001   0.49997   1.000
    O17     O    0.48461   0.03523   0.60481   1.000
    O18     O    0.56496   0.03589   0.54202   1.000
    O19     O    0.51539   0.96479   0.39513   1.000
    O20     O    0.51221   0.88018   0.54135   1.000
    O21     O    0.43503   0.96413   0.45792   1.000
    O22     O    0.48779   0.11985   0.45859   1.000
    Zr23    Zr   0.25000   0.00001   0.99999   1.000
    O24     O    0.23462   0.03522   0.89511   1.000
    O25     O    0.26221   0.88017   0.95859   1.000
    O26     O    0.31496   0.03590   0.95793   1.000
    O27     O    0.18504   0.96412   0.04203   1.000
    O28     O    0.23779   0.11986   0.04137   1.000
    O29     O    0.26538   0.96481   0.10483   1.000
    Zr30    Zr   0.00000   0.00001   0.49998   1.000
    O31     O    0.06497   0.03589   0.54203   1.000
    O32     O    0.98461   0.03524   0.60482   1.000
    O33     O    0.01539   0.96479   0.39513   1.000
    O34     O    0.98779   0.11985   0.45860   1.000
    O35     O    0.01221   0.88018   0.54136   1.000
    O36     O    0.93504   0.96413   0.45791   1.000
    Zr37    Zr   1.00000   0.50002   0.00000   1.000
    O38     O    0.01221   0.61985   0.04138   1.000
    O39     O    0.01539   0.53524   0.89514   1.000
    O40     O    0.06496   0.46414   0.04205   1.000
    O41     O    0.98461   0.46480   0.10484   1.000
    O42     O    0.93503   0.53589   0.95793   1.000
    O43     O    0.98779   0.38019   0.95861   1.000
    Zr44    Zr   0.75000   0.00002   0.99999   1.000
    O45     O    0.81496   0.03591   0.95793   1.000
    O46     O    0.73462   0.03522   0.89514   1.000
    O47     O    0.73779   0.11987   0.04137   1.000
    O48     O    0.76221   0.88017   0.95859   1.000
    O49     O    0.68504   0.96413   0.04203   1.000
    O50     O    0.76538   0.96481   0.10482   1.000
    Zr51    Zr   0.50000   0.50002   0.99999   1.000
    O52     O    0.48779   0.38019   0.95860   1.000
    O53     O    0.43504   0.53589   0.95792   1.000
    O54     O    0.56497   0.46414   0.04204   1.000
    O55     O    0.51221   0.61984   0.04137   1.000
    O56     O    0.51539   0.53524   0.89512   1.000
    O57     O    0.48461   0.46480   0.10483   1.000
    Zr58    Zr   0.25000   0.50002   0.49990   1.000
    O59     O    0.26538   0.53523   0.60476   1.000
    O60     O    0.23462   0.46481   0.39509   1.000
    O61     O    0.18504   0.53590   0.54197   1.000
    O62     O    0.23779   0.38017   0.54131   1.000
    O63     O    0.31496   0.46413   0.45788   1.000
    O64     O    0.26221   0.61986   0.45855   1.000
    Zr65    Zr   0.75000   0.50002   0.49990   1.000
    O66     O    0.73779   0.38017   0.54131   1.000
    O67     O    0.76538   0.53523   0.60476   1.000
    O68     O    0.81496   0.46413   0.45789   1.000
    O69     O    0.73462   0.46481   0.39509   1.000
    O70     O    0.68504   0.53590   0.54197   1.000
    O71     O    0.76221   0.61986   0.45855   1.000
loop_
    _geom_bond_atom_site_label_1
    _geom_bond_atom_site_label_2
    _geom_bond_distance
    _geom_bond_site_symmetry_2
    _ccdc_geom_bond_type
    Zr16   O17       1.70269      .   S
    N9     O17       3.92919      .   S
    Zr16   O18       1.54675      .   S
    N11    O18       3.48708      .   S
    Zr16   O19       1.70265  1_545   S
    N15    O19       3.92917      .   S
    Zr16   O20       1.66115  1_545   S
    N7     O20       3.80153      .   S
    Zr16   O21       1.54673  1_545   S
    N1     O21       3.48698      .   S
    Zr16   O22       1.66121      .   S
    N13    O22       3.80157      .   S
    Zr23   O24       1.70326      .   S
    N10    O24       3.92939      .   S
    Zr23   O25       1.66119  1_545   S
    N12    O25       3.80142      .   S
    Zr23   O26       1.54686      .   S
    N9     O26       3.48741      .   S
    Zr23   O27       1.54680  1_546   S
    N14    O27       3.48720      .   S
    Zr23   O28       1.66113  1_556   S
    N5     O28       3.80131      .   S
    Zr23   O29       1.70266  1_546   S
    N1     O29       3.92928      .   S
    Zr30   O31       1.54668      .   S
    N10    O31       3.48689      .   S
    Zr30   O32       1.70258  1_455   S
    N8     O32       3.92923      .   S
    Zr30   O33       1.70272  1_545   S
    N14    O33       3.92923      .   S
    Zr30   O34       1.66122  1_455   S
    N2     O34       3.80162      .   S
    Zr30   O35       1.66116  1_545   S
    N6     O35       3.80152      .   S
    Zr30   O36       1.54684  1_445   S
    N0     O36       3.48698      .   S
    Zr37   O38       1.66070  1_655   S
    N14    O38       3.80060      .   S
    Zr37   O39       1.70302  1_654   S
    N6     O39       3.92978      .   S
    Zr37   O40       1.54698  1_655   S
    N5     O40       3.48755      .   S
    Zr37   O41       1.70278      .   S
    N2     O41       3.92938      .   S
    Zr37   O42       1.54704  1_554   S
    N3     O42       3.48770      .   S
    Zr37   O43       1.66083  1_554   S
    N8     O43       3.80085      .   S
    Zr44   O45       1.54685      .   S
    N8     O45       3.48739      .   S
    Zr44   O46       1.70286      .   S
    N11    O46       3.92959      .   S
    Zr44   O47       1.66112  1_556   S
    N4     O47       3.80130      .   S
    Zr44   O48       1.66117  1_545   S
    N3     O48       3.80141      .   S
    Zr44   O49       1.54681  1_546   S
    N15    O49       3.48720      .   S
    Zr44   O50       1.70255  1_546   S
    N0     O50       3.92934      .   S
    Zr51   O52       1.66082      .   S
    N9     O52       3.80085      .   S
    Zr51   O53       1.54707      .   S
    N12    O53       3.48776      .   S
    Zr51   O54       1.54698  1_556   S
    N4     O54       3.48757      .   S
    Zr51   O55       1.66072  1_556   S
    N15    O55       3.80064      .   S
    Zr51   O56       1.70316      .   S
    N7     O56       3.92964      .   S
    Zr51   O57       1.70281  1_556   S
    N13    O57       3.92944      .   S
    Zr58   O59       1.70282      .   S
    N12    O59       3.92942      .   S
    Zr58   O60       1.70202      .   S
    N5     O60       3.92810      .   S
    Zr58   O61       1.54705      .   S
    N6     O61       3.48768      .   S
    Zr58   O62       1.66131      .   S
    N10    O62       3.80179      .   S
    Zr58   O63       1.54668      .   S
    N13    O63       3.48697      .   S
    Zr58   O64       1.66101      .   S
    N1     O64       3.80124      .   S
    Zr65   O66       1.66133      .   S
    N11    O66       3.80186      .   S
    Zr65   O67       1.70285      .   S
    N3     O67       3.92949      .   S
    Zr65   O68       1.54667      .   S
    N2     O68       3.48695      .   S
    Zr65   O69       1.70202      .   S
    N4     O69       3.92810      .   S
    Zr65   O70       1.54703      .   S
    N7     O70       3.48762      .   S
    Zr65   O71       1.66102      .   S
    N0     O71       3.80126      .   S
