# CIF file generated by openbabel 2.4.90, see http://openbabel.sf.net
data_I
_chemical_name_common ''
_cell_length_a 17.224
_cell_length_b 17.234
_cell_length_c 17.292
_cell_angle_alpha 90.548
_cell_angle_beta 90
_cell_angle_gamma 90
_space_group_name_H-M_alt 'P 1'
_space_group_name_Hall 'P 1'
loop_
    _symmetry_equiv_pos_as_xyz
    x,y,z
loop_
    _atom_site_label
    _atom_site_type_symbol
    _atom_site_fract_x
    _atom_site_fract_y
    _atom_site_fract_z
    _atom_site_occupancy
    Zn0     Zn   0.58569   0.17240   0.00000   1.000
    Zn1     Zn   0.42610   0.26481   0.00000   1.000
    Zn2     Zn   0.51901   0.25859   0.14906   1.000
    Zn3     Zn   0.43781   0.61697   0.42620   1.000
    Zn4     Zn   0.35675   0.76915   0.35553   1.000
    Zn5     Zn   0.79340   0.32925   0.50745   1.000
    Zn6     Zn   0.44750   0.77733   0.51722   1.000
    Zn7     Zn   0.94218   0.90955   0.93097   1.000
    Zn8     Zn   0.07866   0.84503   0.00340   1.000
    Zn9     Zn   0.93597   0.75266   0.01025   1.000
    Zn10    Zn   0.01339   0.75698   0.86633   1.000
    Zn11    Zn   0.94591   0.40032   0.58949   1.000
    Zn12    Zn   0.86426   0.24816   0.65988   1.000
    Zn13    Zn   0.28542   0.68829   0.50810   1.000
    Zn14    Zn   0.95546   0.24011   0.49839   1.000
    Zn15    Zn   0.43336   0.10732   0.08427   1.000
    C16     C    0.56141   0.00867   0.03273   1.000
    C17     C    0.80432   0.86483   0.00585   1.000
    C18     C    0.53201   0.25066   0.87054   1.000
    C19     C    0.69541   0.27091   0.63220   1.000
    C20     C    0.68307   0.21704   0.12701   1.000
    C21     C    0.84116   0.23523   0.37014   1.000
    C22     C    0.46920   0.13196   0.24719   1.000
    O23     O    0.87810   0.49215   0.58205   1.000
    O24     O    0.78918   0.44339   0.49737   1.000
    O25     O    0.00000   0.81668   0.95953   1.000
    O26     O    0.00000   0.00000   0.94140   1.000
    O27     O    0.07226   0.95975   0.01966   1.000
    C28     C    0.45198   0.90485   0.40104   1.000
    C29     C    0.43737   0.39943   0.09748   1.000
    C30     C    0.41464   0.64200   0.25837   1.000
    C31     C    0.57410   0.65995   0.52088   1.000
    C32     C    0.81295   0.49520   0.54500   1.000
    C33     C    0.05321   0.00000   0.98254   1.000
    C34     C    0.29450   0.15237   0.00000   1.000
    C35     C    0.00000   0.76693   0.14478   1.000
    C36     C    0.18777   0.74672   0.38320   1.000
    C37     C    0.17647   0.79982   0.88979   1.000
    C38     C    0.33311   0.78224   0.64551   1.000
    C39     C    0.97852   0.88503   0.76846   1.000
    C40     C    0.95965   0.11248   0.61471   1.000
    C41     C    0.94822   0.61695   0.91788   1.000
    C42     C    0.92158   0.37450   0.75735   1.000
    C43     C    0.06538   0.35763   0.49475   1.000
    C44     C    0.30442   0.52229   0.47004   1.000
    O45     O    0.49192   0.20017   0.05491   1.000
    O46     O    0.49908   0.01362   0.07388   1.000
    O47     O    0.57937   0.05762   0.99567   1.000
    O48     O    0.84050   0.91588   0.98148   1.000
    O49     O    0.83075   0.79748   0.02295   1.000
    O50     O    0.58732   0.22051   0.91024   1.000
    O51     O    0.46445   0.26806   0.89696   1.000
    O52     O    0.75111   0.23040   0.66004   1.000
    O53     O    0.69807   0.30623   0.56690   1.000
    O54     O    0.67968   0.17988   0.06192   1.000
    O55     O    0.63379   0.26850   0.14879   1.000
    O56     O    0.90488   0.21076   0.39980   1.000
    O57     O    0.79305   0.28171   0.40372   1.000
    O58     O    0.50772   0.19594   0.24365   1.000
    O59     O    0.41692   0.11191   0.19771   1.000
    O60     O    0.47495   0.87538   0.46496   1.000
    O61     O    0.40695   0.87105   0.35179   1.000
    O62     O    0.46800   0.35994   0.15255   1.000
    O63     O    0.42061   0.37229   0.03006   1.000
    O64     O    0.45805   0.61734   0.31321   1.000
    O65     O    0.37625   0.70619   0.26100   1.000
    O66     O    0.38079   0.71286   0.45110   1.000
    O67     O    0.54655   0.72606   0.54216   1.000
    O68     O    0.53889   0.61044   0.47731   1.000
    O69     O    0.33165   0.10137   0.03394   1.000
    O70     O    0.32101   0.21962   0.99212   1.000
    O71     O    0.07988   0.79703   0.10512   1.000
    O72     O    0.97370   0.74954   0.11832   1.000
    O73     O    0.24369   0.78687   0.35522   1.000
    O74     O    0.19020   0.71172   0.44866   1.000
    O75     O    0.17261   0.83784   0.95432   1.000
    O76     O    0.12798   0.74703   0.86918   1.000
    O77     O    0.39677   0.80675   0.61572   1.000
    O78     O    0.28499   0.73574   0.61199   1.000
    O79     O    0.00000   0.82105   0.77221   1.000
    O80     O    0.92592   0.90521   0.81756   1.000
    O81     O    0.98278   0.14207   0.55090   1.000
    O82     O    0.91445   0.14626   0.66382   1.000
    O83     O    0.97972   0.65547   0.86259   1.000
    O84     O    0.93165   0.64483   0.98504   1.000
    O85     O    0.96610   0.39762   0.70270   1.000
    O86     O    0.88125   0.31152   0.75457   1.000
    O87     O    0.88871   0.30453   0.56448   1.000
    O88     O    0.03778   0.29153   0.47340   1.000
    O89     O    0.03019   0.40715   0.53832   1.000
    O90     O    0.36963   0.52525   0.43360   1.000
    O91     O    0.28063   0.57418   0.51808   1.000
    Og92    Og   0.57938   0.99282   0.03703   1.000
    Og93    Og   0.77842   0.87224   0.01490   1.000
    Og94    Og   0.53788   0.25588   0.84341   1.000
    Og95    Og   0.67183   0.27255   0.64782   1.000
    Og96    Og   0.70456   0.21165   0.14461   1.000
    Og97    Og   0.83405   0.22648   0.34411   1.000
    Og98    Og   0.47439   0.11414   0.26829   1.000
    Og99    Og   0.46068   0.93090   0.39424   1.000
    Og100   Og   0.43169   0.42666   0.10329   1.000
    Og101   Og   0.41301   0.62568   0.23517   1.000
    Og102   Og   0.60001   0.65253   0.52978   1.000
    Og103   Og   0.79598   0.51755   0.54951   1.000
    Og104   Og   0.07063   0.01871   0.97803   1.000
    Og105   Og   0.26860   0.14495   0.99406   1.000
    Og106   Og   0.01402   0.76173   0.17191   1.000
    Og107   Og   0.16420   0.74510   0.36757   1.000
    Og108   Og   0.19776   0.80533   0.87200   1.000
    Og109   Og   0.32607   0.79100   0.67156   1.000
    Og110   Og   0.98376   0.90290   0.74734   1.000
    Og111   Og   0.96835   0.08641   0.62152   1.000
    Og112   Og   0.94215   0.58980   0.91211   1.000
    Og113   Og   0.92023   0.39090   0.78052   1.000
    Og114   Og   0.09129   0.36505   0.48583   1.000
    Og115   Og   0.28741   0.49995   0.46570   1.000
loop_
    _geom_bond_atom_site_label_1
    _geom_bond_atom_site_label_2
    _geom_bond_distance
    _geom_bond_site_symmetry_2
    _ccdc_geom_bond_type
    Zn0    O45       1.93154      .   S
    Zn0    O54       1.94454      .   S
    Zn0    O50       1.76691  1_554   S
    Zn0    O47       1.98185  1_554   S
    C34    O69       1.23932      .   S
    C34    O70       1.25437  1_554   S
    Zn1    O63       1.92135      .   S
    Zn1    O45       1.85688      .   S
    Zn1    O51       1.90160  1_554   S
    Zn1    O70       1.97465  1_554   S
    Zn8    O27       1.99731      .   S
    Zn8    O71       1.95104      .   S
    Zn8    O75       1.83093  1_554   S
    Zn8    O25       1.62570  1_554   S
    C17    O49       1.28398      .   S
    C17    O48       1.16063  1_554   S
    Zn9    O49       1.98146      .   S
    Zn9    O72       1.97975      .   S
    Zn9    O25       1.79478  1_654   S
    Zn9    O84       1.90619  1_554   S
    O27    C33       1.00468  1_564   S
    O63    C29       1.28484      .   S
    C16    O46       1.29028      .   S
    C16    O47       1.10833  1_554   S
    O69    Zn15      1.95834      .   S
    O54    C20       1.29093      .   S
    O46    Zn15      1.97879      .   S
    Zn15   O59       1.98275      .   S
    C29    O62       1.28873      .   S
    O71    C35       1.62459      .   S
    O72    C35       0.70828  1_655   S
    C20    O55       1.28156      .   S
    O55    Zn2       1.98444      .   S
    Zn2    O62       1.95549      .   S
    Zn2    O58       1.97811      .   S
    O59    C22       1.28705      .   S
    O58    C22       1.28883      .   S
    C30    O65       1.28929      .   S
    C30    O64       1.28319      .   S
    O65    Zn4       1.98195      .   S
    O64    Zn3       1.98476      .   S
    O61    Zn4       1.95908      .   S
    O61    C28       1.28713      .   S
    O73    Zn4       1.97112      .   S
    O73    C36       1.28344      .   S
    C21    O56       1.28447      .   S
    C21    O57       1.28701      .   S
    C36    O74       1.28833      .   S
    O56    Zn14      1.97599      .   S
    C28    O60       1.28340      .   S
    O57    Zn5       1.96480      .   S
    Zn3    O90       1.97437      .   S
    Zn3    O68       1.95623      .   S
    O90    C44       1.28909      .   S
    O74    Zn13      1.97913      .   S
    O66    Zn13      1.96400      .   S
    O66    Zn6       1.95898      .   S
    O60    Zn6       1.98111      .   S
    C44    O91       1.28200      .   S
    O88    C43       1.28514      .   S
    O88    Zn14      1.72920  1_455   S
    O68    C31       1.28496      .   S
    C43    O89       1.28498      .   S
    O24    Zn5       1.97790      .   S
    O24    C32       1.27627      .   S
    Zn14   O81       1.98246      .   S
    Zn14   O87       1.95857      .   S
    Zn5    O87       1.96388      .   S
    Zn5    O53       1.97947      .   S
    Zn13   O91       1.97741      .   S
    Zn13   O78       1.96673      .   S
    Zn6    O67       1.97089      .   S
    Zn6    O77       1.97616      .   S
    C31    O67       1.28478      .   S
    O89    Zn11      1.70477  1_455   S
    C32    O23       1.29350      .   S
    O81    C40       1.28337      .   S
    O53    C19       1.28876      .   S
    O23    Zn11      1.97202      .   S
    Zn11   O85       1.98927      .   S
    O78    C38       1.28702      .   S
    C40    O82       1.28718      .   S
    O77    C38       1.28454      .   S
    C19    O52       1.28302      .   S
    Zn12   O52       1.97281      .   S
    Zn12   O82       1.95907      .   S
    Zn12   O86       1.98114      .   S
    O85    C42       1.28334      .   S
    O86    C42       1.28914      .   S
    C39    O79       1.16546  1_655   S
    C39    O80       1.28721      .   S
    O79    Zn10      1.98889      .   S
    O80    Zn7       1.98168      .   S
    O83    Zn10      1.84364  1_655   S
    O83    C41       1.28885      .   S
    Zn10   O76       1.98172      .   S
    O76    C37       1.28300      .   S
    C18    O51       1.28456      .   S
    C18    O50       1.28665      .   S
    C37    O75       1.29035      .   S
    C41    O84       1.28467      .   S
    Zn7    O26       1.85708  1_665   S
    Zn7    O48       1.95962      .   S
    O26    C33       1.16017      .   S
    O45    Zn15      1.96246      .   S
    O45    Zn2       1.96235      .   S
    O66    Zn3       1.96641      .   S
    O66    Zn4       1.96834      .   S
    O25    Zn7       1.95257  1_455   S
    O25    Zn10      1.91764      .   S
    O87    Zn11      1.96710      .   S
    O87    Zn12      1.96801      .   S
    C16    Og92      0.41995  1_545   S
    C17    Og93      0.48941      .   S
    C18    Og94      0.48900      .   S
    C19    Og95      0.48840      .   S
    C20    Og96      0.48857      .   S
    C21    Og97      0.48887      .   S
    C22    Og98      0.48745      .   S
    C28    Og99      0.48871      .   S
    C29    Og100     0.48880      .   S
    C30    Og101     0.48854      .   S
    C31    Og102     0.48948      .   S
    C32    Og103     0.48917      .   S
    C33    Og104     0.44782      .   S
    C34    Og105     0.47506  1_554   S
    C35    Og106     0.53599      .   S
    C36    Og107     0.48832      .   S
    C37    Og108     0.48860      .   S
    C38    Og109     0.48904      .   S
    C39    Og110     0.48834      .   S
    C40    Og111     0.48897      .   S
    C41    Og112     0.48886      .   S
    C42    Og113     0.48862      .   S
    C43    Og114     0.48961      .   S
    C44    Og115     0.48896      .   S
