# CIF file generated by openbabel 2.4.90, see http://openbabel.sf.net
data_I
_chemical_name_common ''
_cell_length_a 18.795
_cell_length_b 18.726
_cell_length_c 18.724
_cell_angle_alpha 60.224
_cell_angle_beta 60.401
_cell_angle_gamma 60.366
_space_group_name_H-M_alt 'P 1'
_space_group_name_Hall 'P 1'
loop_
    _symmetry_equiv_pos_as_xyz
    x,y,z
loop_
    _atom_site_label
    _atom_site_type_symbol
    _atom_site_fract_x
    _atom_site_fract_y
    _atom_site_fract_z
    _atom_site_occupancy
    H0      H    0.31865   0.08925   0.79602   1.000
    H1      H    0.09035   0.32046   0.79493   1.000
    H2      H    0.79590   0.79607   0.31944   1.000
    H3      H    0.79482   0.79421   0.08943   1.000
    H4      H    0.31816   0.79677   0.79660   1.000
    H5      H    0.09044   0.79376   0.79383   1.000
    H6      H    0.79565   0.32014   0.08937   1.000
    H7      H    0.79546   0.08930   0.31990   1.000
    H8      H    0.31862   0.79618   0.08928   1.000
    H9      H    0.09034   0.79479   0.32026   1.000
    H10     H    0.79499   0.08939   0.79422   1.000
    H11     H    0.79586   0.31942   0.79610   1.000
    C12     C    0.32455   0.22017   0.72741   1.000
    C13     C    0.28386   0.15900   0.77854   1.000
    C14     C    0.22109   0.32492   0.72693   1.000
    C15     C    0.15958   0.28484   0.77796   1.000
    C16     C    0.72739   0.72778   0.32489   1.000
    C17     C    0.77847   0.77856   0.28426   1.000
    C18     C    0.72691   0.72695   0.22072   1.000
    C19     C    0.77789   0.77756   0.15907   1.000
    C20     C    0.32459   0.72794   0.72786   1.000
    C21     C    0.28359   0.77894   0.77882   1.000
    C22     C    0.22137   0.72659   0.72663   1.000
    C23     C    0.15963   0.77732   0.77733   1.000
    C24     C    0.72703   0.32495   0.22045   1.000
    C25     C    0.77834   0.28466   0.15905   1.000
    C26     C    0.72692   0.22034   0.32493   1.000
    C27     C    0.77823   0.15902   0.28454   1.000
    C28     C    0.32470   0.72742   0.22013   1.000
    C29     C    0.28390   0.77860   0.15901   1.000
    C30     C    0.22103   0.72677   0.32502   1.000
    C31     C    0.15960   0.77784   0.28478   1.000
    C32     C    0.72689   0.22059   0.72686   1.000
    C33     C    0.77793   0.15906   0.77751   1.000
    C34     C    0.72728   0.32513   0.72771   1.000
    C35     C    0.77839   0.28433   0.77853   1.000
    C36     C    0.30836   0.30777   0.69162   1.000
    C37     C    0.19229   0.19275   0.80770   1.000
    C38     C    0.69162   0.69207   0.30800   1.000
    C39     C    0.80761   0.80727   0.19219   1.000
    C40     C    0.30870   0.69189   0.69188   1.000
    C41     C    0.19202   0.80741   0.80700   1.000
    C42     C    0.69130   0.30799   0.30808   1.000
    C43     C    0.80786   0.19258   0.19248   1.000
    C44     C    0.30833   0.69161   0.30777   1.000
    C45     C    0.19233   0.80766   0.19273   1.000
    C46     C    0.69164   0.30835   0.69207   1.000
    C47     C    0.80758   0.19225   0.80720   1.000
loop_
    _geom_bond_atom_site_label_1
    _geom_bond_atom_site_label_2
    _geom_bond_distance
    _geom_bond_site_symmetry_2
    _ccdc_geom_bond_type
    H8     C29       1.08755      .   S
    H6     C25       1.08763      .   S
    H3     C19       1.08773      .   S
    C29    C45       1.41356      .   S
    C29    C28       1.36637      .   S
    C25    C43       1.41358      .   S
    C25    C24       1.36654      .   S
    C19    C39       1.41354      .   S
    C19    C18       1.36663      .   S
    C39    C17       1.41380      .   S
    C43    C27       1.41358      .   S
    C45    C31       1.41325      .   S
    C28    C44       1.35997      .   S
    C24    C42       1.35974      .   S
    C18    C38       1.35452      .   S
    C17    H2        1.08754      .   S
    C17    C16       1.36658      .   S
    C27    H7        1.08762      .   S
    C27    C26       1.36656      .   S
    C31    H9        1.08765      .   S
    C31    C30       1.36641      .   S
    C44    C30       1.36004      .   S
    C38    C16       1.36511      .   S
    C42    C26       1.35987      .   S
    C36    C14       1.35980      .   S
    C36    C12       1.35971      .   S
    C40    C22       1.36000      .   S
    C40    C20       1.35974      .   S
    C46    C32       1.36042      .   S
    C46    C34       1.36033      .   S
    C22    C23       1.36652      .   S
    C32    C33       1.36648      .   S
    C14    C15       1.36649      .   S
    C12    C13       1.36645      .   S
    C34    C35       1.36645      .   S
    C20    C21       1.36649      .   S
    C23    H5        1.08766      .   S
    C23    C41       1.40756      .   S
    C33    H10       1.08769      .   S
    C33    C47       1.41347      .   S
    C15    H1        1.08762      .   S
    C15    C37       1.41345      .   S
    C35    H11       1.08736      .   S
    C35    C47       1.41364      .   S
    C13    H0        1.08757      .   S
    C13    C37       1.41369      .   S
    C21    H4        1.08762      .   S
    C21    C41       1.41411      .   S
