# CIF file generated by openbabel 2.4.90, see http://openbabel.sf.net
data_I
_chemical_name_common ''
_cell_length_a 18.795
_cell_length_b 18.726
_cell_length_c 18.724
_cell_angle_alpha 60.224
_cell_angle_beta 60.401
_cell_angle_gamma 60.366
_space_group_name_H-M_alt 'P 1'
_space_group_name_Hall 'P 1'
loop_
    _symmetry_equiv_pos_as_xyz
    x,y,z
loop_
    _atom_site_label
    _atom_site_type_symbol
    _atom_site_fract_x
    _atom_site_fract_y
    _atom_site_fract_z
    _atom_site_occupancy
    Lv0     Lv   0.23734   0.23740   0.76264   1.000
    Lv1     Lv   0.76260   0.23737   0.23735   1.000
    Lv2     Lv   0.23736   0.76261   0.23737   1.000
    Lv3     Lv   0.76258   0.76256   0.23725   1.000
    Lv4     Lv   0.23731   0.76258   0.76249   1.000
    Lv5     Lv   0.76257   0.23731   0.76253   1.000
