# CIF file generated by openbabel 2.4.90, see http://openbabel.sf.net
data_I
_chemical_name_common ''
_cell_length_a 18.795
_cell_length_b 18.726
_cell_length_c 18.724
_cell_angle_alpha 60.224
_cell_angle_beta 60.401
_cell_angle_gamma 60.366
_space_group_name_H-M_alt 'P 1'
_space_group_name_Hall 'P 1'
loop_
    _symmetry_equiv_pos_as_xyz
    x,y,z
loop_
    _atom_site_label
    _atom_site_type_symbol
    _atom_site_fract_x
    _atom_site_fract_y
    _atom_site_fract_z
    _atom_site_occupancy
    Zn0     Zn   0.37210   0.54247   0.54249   1.000
    Zn1     Zn   0.54276   0.54347   0.54336   1.000
    Zn2     Zn   0.54249   0.54281   0.37111   1.000
    Zn3     Zn   0.12731   0.95767   0.95760   1.000
    Zn4     Zn   0.95762   0.12847   0.95721   1.000
    Zn5     Zn   0.95761   0.95724   0.12838   1.000
    Zn6     Zn   0.95728   0.95656   0.95666   1.000
    Zn7     Zn   0.54243   0.37108   0.54281   1.000
    C8      C    0.13597   0.13673   0.86404   1.000
    C9      C    0.36447   0.36368   0.63541   1.000
    C10     C    0.86400   0.86326   0.13583   1.000
    C11     C    0.63542   0.63621   0.36456   1.000
    C12     C    0.13552   0.86358   0.86350   1.000
    C13     C    0.36494   0.63588   0.63588   1.000
    C14     C    0.86445   0.13645   0.13628   1.000
    C15     C    0.63497   0.36397   0.36410   1.000
    C16     C    0.13600   0.86405   0.13666   1.000
    C17     C    0.36444   0.63544   0.36372   1.000
    C18     C    0.86397   0.13589   0.86320   1.000
    C19     C    0.63542   0.36454   0.63618   1.000
    O20     O    0.17481   0.05455   0.88565   1.000
    O21     O    0.44571   0.32370   0.61458   1.000
    O22     O    0.05427   0.17608   0.88538   1.000
    O23     O    0.32491   0.44540   0.61440   1.000
    O24     O    0.88561   0.88496   0.17514   1.000
    O25     O    0.61457   0.61580   0.44620   1.000
    O26     O    0.88536   0.88424   0.05366   1.000
    O27     O    0.61445   0.61503   0.32455   1.000
    O28     O    0.17435   0.88548   0.88546   1.000
    O29     O    0.44620   0.61549   0.61542   1.000
    O30     O    0.05381   0.88449   0.88453   1.000
    O31     O    0.32537   0.61458   0.61460   1.000
    O32     O    0.88605   0.17583   0.05411   1.000
    O33     O    0.61418   0.44571   0.32400   1.000
    O34     O    0.88609   0.05426   0.17560   1.000
    O35     O    0.61394   0.32394   0.44581   1.000
    O36     O    0.17482   0.88579   0.05451   1.000
    O37     O    0.44568   0.61480   0.32380   1.000
    O38     O    0.05431   0.88540   0.17597   1.000
    O39     O    0.32489   0.61436   0.44540   1.000
    O40     O    0.88522   0.05370   0.88440   1.000
    O41     O    0.61437   0.32453   0.61508   1.000
    O42     O    0.88571   0.17523   0.88480   1.000
    O43     O    0.61467   0.44627   0.61564   1.000
    O44     O    0.99967   0.00002   0.99996   1.000
    O45     O    0.50017   0.49995   0.49990   1.000
loop_
    _geom_bond_atom_site_label_1
    _geom_bond_atom_site_label_2
    _geom_bond_distance
    _geom_bond_site_symmetry_2
    _ccdc_geom_bond_type
    O26    C10       1.27597      .   S
    O26    Zn6       1.97536  1_554   S
    O32    C14       1.27590      .   S
    O32    Zn4       1.97370  1_554   S
    O36    C16       1.27561      .   S
    O36    Zn3       1.97182  1_554   S
    Zn5    O24       1.97314      .   S
    Zn5    O34       1.97367  1_565   S
    Zn5    O38       1.97443  1_655   S
    C10    O24       1.27581      .   S
    C14    O34       1.27584      .   S
    C16    O38       1.27590      .   S
    O37    C17       1.27103      .   S
    O37    Zn2       1.97317      .   S
    O33    C15       1.27124      .   S
    O33    Zn2       1.97390      .   S
    O27    C11       1.27081      .   S
    O27    Zn2       1.97260      .   S
    C17    O39       1.27078      .   S
    C15    O35       1.27099      .   S
    C11    O25       1.26982      .   S
    Zn2    O45       1.97641      .   S
    O39    Zn0       1.97126      .   S
    O35    Zn7       1.97285      .   S
    O25    Zn1       1.97498      .   S
    O45    Zn0       1.97558      .   S
    Zn0    O23       1.97166      .   S
    Zn0    O31       1.97085      .   S
    Zn7    O21       1.97363      .   S
    Zn7    O41       1.97220      .   S
    Zn1    O29       1.97508      .   S
    Zn1    O43       1.97449      .   S
    O23    C9        1.27079      .   S
    O21    C9        1.27097      .   S
    O31    C13       1.27089      .   S
    O41    C19       1.27105      .   S
    O29    C13       1.27113      .   S
    O43    C19       1.27106      .   S
    C18    O40       1.27577      .   S
    C18    O42       1.27667      .   S
    C12    O30       1.27593      .   S
    C12    O28       1.27661      .   S
    C8     O22       1.27589      .   S
    C8     O20       1.27568      .   S
    O40    Zn6       1.97563  1_545   S
    O30    Zn6       1.97627  1_455   S
    O42    Zn4       1.97294      .   S
    O22    Zn4       1.97500  1_455   S
    O28    Zn3       1.97121      .   S
    O20    Zn3       1.97209  1_545   S
    Zn4    O44       1.97072      .   S
    Zn3    O44       1.96894  1_465   S
    O44    Zn5       1.97073  1_546   S
    O44    Zn6       1.97193  1_545   S
    O45    Zn7       1.97718      .   S
    O45    Zn1       1.97854      .   S
