# CIF file generated by openbabel 2.4.90, see http://openbabel.sf.net
data_I
_chemical_name_common ''
_cell_length_a 18.795
_cell_length_b 18.726
_cell_length_c 18.724
_cell_angle_alpha 60.224
_cell_angle_beta 60.401
_cell_angle_gamma 60.366
_space_group_name_H-M_alt 'P 1'
_space_group_name_Hall 'P 1'
loop_
    _symmetry_equiv_pos_as_xyz
    x,y,z
loop_
    _atom_site_label
    _atom_site_type_symbol
    _atom_site_fract_x
    _atom_site_fract_y
    _atom_site_fract_z
    _atom_site_occupancy
    N0      N    0.23734   0.23740   0.76264   1.000
    N1      N    0.76260   0.23737   0.23735   1.000
    N2      N    0.23736   0.76261   0.23737   1.000
    N3      N    0.76258   0.76256   0.23725   1.000
    N4      N    0.23731   0.76258   0.76249   1.000
    N5      N    0.76257   0.23731   0.76253   1.000
    Zr6     Zr   0.99999   1.00000   0.99994   1.000
    O7      O    0.10036   0.10053   0.89960   1.000
    O8      O    0.10027   0.89952   0.89940   1.000
    O9      O    0.10038   0.89961   0.10048   1.000
    O10     O    0.89968   0.10047   0.10040   1.000
    O11     O    0.89959   0.89945   0.10028   1.000
    O12     O    0.89958   0.10034   0.89940   1.000
    Zr13    Zr   0.49994   0.49996   0.49996   1.000
    O14     O    0.60640   0.39332   0.39334   1.000
    O15     O    0.39350   0.60660   0.60657   1.000
    O16     O    0.39340   0.60652   0.39326   1.000
    O17     O    0.60649   0.39342   0.60664   1.000
    O18     O    0.60649   0.60665   0.39336   1.000
    O19     O    0.39341   0.39326   0.60652   1.000
loop_
    _geom_bond_atom_site_label_1
    _geom_bond_atom_site_label_2
    _geom_bond_distance
    _geom_bond_site_symmetry_2
    _ccdc_geom_bond_type
    Zr6    O7        2.67036  1_665   S
    N0     O7        3.63979      .   S
    Zr6    O8        2.67247  1_655   S
    N4     O8        3.64093      .   S
    Zr6    O9        2.66916  1_656   S
    N2     O9        3.63801      .   S
    Zr6    O10       2.67148  1_566   S
    N1     O10       3.64096      .   S
    Zr6    O11       2.67085  1_556   S
    N3     O11       3.64073      .   S
    Zr6    O12       2.66933  1_565   S
    N5     O12       3.63831      .   S
    Zr13   O14       2.83533      .   S
    N1     O14       4.14731      .   S
    Zr13   O15       2.83517      .   S
    N4     O15       4.14688      .   S
    Zr13   O16       2.83253      .   S
    N2     O16       4.14371      .   S
    Zr13   O17       2.83264      .   S
    N5     O17       4.14405      .   S
    Zr13   O18       2.83441      .   S
    N3     O18       4.14681      .   S
    Zr13   O19       2.83415      .   S
    N0     O19       4.14610      .   S
