# CIF file generated by openbabel 2.4.90, see http://openbabel.sf.net
data_I
_chemical_name_common ''
_cell_length_a 18.795
_cell_length_b 18.726
_cell_length_c 18.724
_cell_angle_alpha 60.224
_cell_angle_beta 60.401
_cell_angle_gamma 60.366
_space_group_name_H-M_alt 'P 1'
_space_group_name_Hall 'P 1'
loop_
    _symmetry_equiv_pos_as_xyz
    x,y,z
loop_
    _atom_site_label
    _atom_site_type_symbol
    _atom_site_fract_x
    _atom_site_fract_y
    _atom_site_fract_z
    _atom_site_occupancy
    Zr0     Zr   0.54243   0.37108   0.54281   1.000
    Zr1     Zr   0.37210   0.54247   0.54249   1.000
    Zr2     Zr   0.54276   0.54347   0.54336   1.000
    Zr3     Zr   0.54249   0.54281   0.37111   1.000
    Zr4     Zr   0.12731   0.95767   0.95760   1.000
    Zr5     Zr   0.95762   0.12847   0.95721   1.000
    Zr6     Zr   0.95761   0.95724   0.12838   1.000
    Zr7     Zr   0.95728   0.95656   0.95666   1.000
    Zr8     Zr   0.13597   0.13673   0.86404   1.000
    Zr9     Zr   0.36447   0.36368   0.63541   1.000
    Zr10    Zr   0.86400   0.86326   0.13583   1.000
    Zr11    Zr   0.63542   0.63621   0.36456   1.000
    Zr12    Zr   0.13552   0.86358   0.86350   1.000
    Zr13    Zr   0.36494   0.63588   0.63588   1.000
    Zr14    Zr   0.86445   0.13645   0.13628   1.000
    Zr15    Zr   0.63497   0.36397   0.36410   1.000
    Zr16    Zr   0.13600   0.86405   0.13666   1.000
    Zr17    Zr   0.36444   0.63544   0.36372   1.000
    Zr18    Zr   0.86397   0.13589   0.86320   1.000
    Zr19    Zr   0.63542   0.36454   0.63618   1.000
    Zr20    Zr   0.17481   0.05455   0.88565   1.000
    Zr21    Zr   0.44571   0.32370   0.61458   1.000
    Zr22    Zr   0.05427   0.17608   0.88538   1.000
    Zr23    Zr   0.32491   0.44540   0.61440   1.000
    Zr24    Zr   0.88561   0.88496   0.17514   1.000
    Zr25    Zr   0.61457   0.61580   0.44620   1.000
    Zr26    Zr   0.88536   0.88424   0.05366   1.000
    Zr27    Zr   0.61445   0.61503   0.32455   1.000
    Zr28    Zr   0.17435   0.88548   0.88546   1.000
    Zr29    Zr   0.44620   0.61549   0.61542   1.000
    Zr30    Zr   0.05381   0.88449   0.88453   1.000
    Zr31    Zr   0.32537   0.61458   0.61460   1.000
    Zr32    Zr   0.88605   0.17583   0.05411   1.000
    Zr33    Zr   0.61418   0.44571   0.32400   1.000
    Zr34    Zr   0.88609   0.05426   0.17560   1.000
    Zr35    Zr   0.61394   0.32394   0.44581   1.000
    Zr36    Zr   0.17482   0.88579   0.05451   1.000
    Zr37    Zr   0.44568   0.61480   0.32380   1.000
    Zr38    Zr   0.05431   0.88540   0.17597   1.000
    Zr39    Zr   0.32489   0.61436   0.44540   1.000
    Zr40    Zr   0.88522   0.05370   0.88440   1.000
    Zr41    Zr   0.61437   0.32453   0.61508   1.000
    Zr42    Zr   0.88571   0.17523   0.88480   1.000
    Zr43    Zr   0.61467   0.44627   0.61564   1.000
    Zr44    Zr   0.99967   0.00002   0.99996   1.000
    Zr45    Zr   0.50017   0.49995   0.49990   1.000
    O46     O    0.87468   0.87375   0.09474   1.000
    O47     O    0.92132   0.92040   0.00516   1.000
    O48     O    0.87525   0.15614   0.09520   1.000
    O49     O    0.92183   0.15215   0.00566   1.000
    O50     O    0.15541   0.87492   0.09559   1.000
    O51     O    0.15106   0.92173   0.00605   1.000
    O52     O    0.92161   0.92110   0.15176   1.000
    O53     O    0.92185   0.00575   0.15199   1.000
    O54     O    0.00596   0.92132   0.15218   1.000
    O55     O    0.87481   0.87411   0.15549   1.000
    O56     O    0.87527   0.09535   0.15594   1.000
    O57     O    0.09516   0.87473   0.15631   1.000
    O58     O    0.40506   0.62512   0.34376   1.000
    O59     O    0.49409   0.57881   0.34746   1.000
    O60     O    0.62458   0.40484   0.34405   1.000
    O61     O    0.57834   0.49426   0.34756   1.000
    O62     O    0.62494   0.62562   0.34456   1.000
    O63     O    0.57847   0.57892   0.34783   1.000
    O64     O    0.34466   0.62490   0.40456   1.000
    O65     O    0.62446   0.34395   0.40495   1.000
    O66     O    0.62500   0.62600   0.40538   1.000
    O67     O    0.52133   0.52138   0.43551   1.000
    O68     O    0.34849   0.57842   0.49395   1.000
    O69     O    0.57819   0.34751   0.49431   1.000
    O70     O    0.57867   0.57963   0.49478   1.000
    O71     O    0.43613   0.52121   0.52119   1.000
    O72     O    0.34850   0.49393   0.57844   1.000
    O73     O    0.34873   0.57852   0.57854   1.000
    O74     O    0.49407   0.34739   0.57870   1.000
    O75     O    0.57840   0.34780   0.57894   1.000
    O76     O    0.49448   0.57948   0.57939   1.000
    O77     O    0.57871   0.49487   0.57950   1.000
    O78     O    0.34469   0.40454   0.62490   1.000
    O79     O    0.40509   0.34369   0.62500   1.000
    O80     O    0.34516   0.62523   0.62524   1.000
    O81     O    0.62490   0.34453   0.62563   1.000
    O82     O    0.40557   0.62569   0.62565   1.000
    O83     O    0.62504   0.40540   0.62591   1.000
    O84     O    0.87460   0.09479   0.87380   1.000
    O85     O    0.87484   0.15556   0.87400   1.000
    O86     O    0.09467   0.87403   0.87401   1.000
    O87     O    0.15494   0.87453   0.87448   1.000
    O88     O    0.09512   0.15640   0.87471   1.000
    O89     O    0.15539   0.09564   0.87484   1.000
    O90     O    0.92125   0.00513   0.92053   1.000
    O91     O    0.00555   0.92053   0.92060   1.000
    O92     O    0.92166   0.15185   0.92101   1.000
    O93     O    0.00594   0.15227   0.92130   1.000
    O94     O    0.15083   0.92158   0.92153   1.000
    O95     O    0.15106   0.00611   0.92163   1.000
    O96     O    0.97864   0.06424   0.97859   1.000
    O97     O    0.06349   0.97885   0.97878   1.000
    O98     O    0.97864   0.97863   0.06417   1.000
    O99     O    0.97847   0.97829   0.97831   1.000
    O100    O    0.52130   0.43552   0.52136   1.000
    O101    O    0.52146   0.52171   0.52163   1.000
    N102    N    0.23734   0.23740   0.76264   1.000
    O103    O    0.28688   0.28656   0.71308   1.000
    O104    O    0.20073   0.20107   0.79925   1.000
    N105    N    0.76260   0.23737   0.23735   1.000
    O106    O    0.71287   0.28668   0.28672   1.000
    O107    O    0.79938   0.20094   0.20087   1.000
    N108    N    0.23736   0.76261   0.23737   1.000
    O109    O    0.20076   0.79923   0.20103   1.000
    O110    O    0.28687   0.71307   0.28656   1.000
    N111    N    0.76258   0.76256   0.23725   1.000
    O112    O    0.71305   0.71335   0.28676   1.000
    O113    O    0.79919   0.79891   0.20063   1.000
    N114    N    0.23731   0.76258   0.76249   1.000
    O115    O    0.28707   0.71323   0.71319   1.000
    O116    O    0.20054   0.79904   0.79887   1.000
    N117    N    0.76257   0.23731   0.76253   1.000
    O118    O    0.79917   0.20069   0.79886   1.000
    O119    O    0.71305   0.28688   0.71332   1.000
loop_
    _geom_bond_atom_site_label_1
    _geom_bond_atom_site_label_2
    _geom_bond_distance
    _geom_bond_site_symmetry_2
    _ccdc_geom_bond_type
    Zr26   O46       0.63798      .   S
    Zr10   O46       0.63798      .   S
    Zr26   O47       0.98768      .   S
    Zr7    O47       0.98768  1_556   S
    Zr32   O48       0.63795      .   S
    Zr14   O48       0.63795      .   S
    Zr32   O49       0.98685      .   S
    Zr5    O49       0.98685  1_556   S
    Zr36   O50       0.63781      .   S
    Zr16   O50       0.63781      .   S
    Zr36   O51       0.98591      .   S
    Zr4    O51       0.98591  1_556   S
    Zr6    O52       0.98657      .   S
    Zr24   O52       0.98657      .   S
    Zr6    O53       0.98683  1_565   S
    Zr34   O53       0.98683      .   S
    Zr6    O54       0.98722  1_655   S
    Zr38   O54       0.98722      .   S
    Zr10   O55       0.63791      .   S
    Zr24   O55       0.63791      .   S
    Zr14   O56       0.63792      .   S
    Zr34   O56       0.63792      .   S
    Zr16   O57       0.63795      .   S
    Zr38   O57       0.63795      .   S
    Zr37   O58       0.63552      .   S
    Zr17   O58       0.63552      .   S
    Zr37   O59       0.98658      .   S
    Zr3    O59       0.98658      .   S
    Zr33   O60       0.63562      .   S
    Zr15   O60       0.63562      .   S
    Zr33   O61       0.98695      .   S
    Zr3    O61       0.98695      .   S
    Zr27   O62       0.63540      .   S
    Zr11   O62       0.63540      .   S
    Zr27   O63       0.98630      .   S
    Zr3    O63       0.98630      .   S
    Zr17   O64       0.63539      .   S
    Zr39   O64       0.63539      .   S
    Zr15   O65       0.63550      .   S
    Zr35   O65       0.63550      .   S
    Zr11   O66       0.63491      .   S
    Zr25   O66       0.63491      .   S
    Zr3    O67       0.98821      .   S
    Zr45   O67       0.98821      .   S
    Zr39   O68       0.98563      .   S
    Zr1    O68       0.98563      .   S
    Zr35   O69       0.98642      .   S
    Zr0    O69       0.98642      .   S
    Zr25   O70       0.98749      .   S
    Zr2    O70       0.98749      .   S
    Zr45   O71       0.98779      .   S
    Zr1    O71       0.98779      .   S
    Zr1    O72       0.98583      .   S
    Zr23   O72       0.98583      .   S
    Zr1    O73       0.98542      .   S
    Zr31   O73       0.98542      .   S
    Zr0    O74       0.98682      .   S
    Zr21   O74       0.98682      .   S
    Zr0    O75       0.98610      .   S
    Zr41   O75       0.98610      .   S
    Zr2    O76       0.98754      .   S
    Zr29   O76       0.98754      .   S
    Zr2    O77       0.98724      .   S
    Zr43   O77       0.98724      .   S
    Zr23   O78       0.63539      .   S
    Zr9    O78       0.63539      .   S
    Zr21   O79       0.63549      .   S
    Zr9    O79       0.63549      .   S
    Zr31   O80       0.63544      .   S
    Zr13   O80       0.63544      .   S
    Zr41   O81       0.63552      .   S
    Zr19   O81       0.63552      .   S
    Zr29   O82       0.63557      .   S
    Zr13   O82       0.63557      .   S
    Zr43   O83       0.63553      .   S
    Zr19   O83       0.63553      .   S
    Zr18   O84       0.63788      .   S
    Zr40   O84       0.63788      .   S
    Zr18   O85       0.63834      .   S
    Zr42   O85       0.63834      .   S
    Zr12   O86       0.63796      .   S
    Zr30   O86       0.63796      .   S
    Zr12   O87       0.63831      .   S
    Zr28   O87       0.63831      .   S
    Zr8    O88       0.63795      .   S
    Zr22   O88       0.63795      .   S
    Zr8    O89       0.63784      .   S
    Zr20   O89       0.63784      .   S
    Zr40   O90       0.98781      .   S
    Zr7    O90       0.98781  1_565   S
    Zr30   O91       0.98813      .   S
    Zr7    O91       0.98813  1_655   S
    Zr42   O92       0.98647      .   S
    Zr5    O92       0.98647      .   S
    Zr22   O93       0.98750      .   S
    Zr5    O93       0.98750  1_655   S
    Zr28   O94       0.98560      .   S
    Zr4    O94       0.98560      .   S
    Zr20   O95       0.98605      .   S
    Zr4    O95       0.98605  1_565   S
    Zr5    O96       0.98536      .   S
    Zr44   O96       0.98536      .   S
    Zr4    O97       0.98447      .   S
    Zr44   O97       0.98447  1_645   S
    Zr44   O98       0.98537  1_546   S
    Zr6    O98       0.98537      .   S
    Zr44   O99       0.98596  1_545   S
    Zr7    O99       0.98596      .   S
    Zr45   O100      0.98859      .   S
    Zr0    O100      0.98859      .   S
    Zr45   O101      0.98927      .   S
    Zr2    O101      0.98927      .   S
    N102   O103      1.31196      .   S
    Zr9    O103      2.05643      .   S
    N102   O104      0.96944      .   S
    Zr8    O104      1.71607      .   S
    N105   O106      1.31200      .   S
    Zr15   O106      2.05659      .   S
    N105   O107      0.96949      .   S
    Zr14   O107      1.71623      .   S
    N108   O109      0.96886      .   S
    Zr16   O109      1.71543      .   S
    N108   O110      1.31118      .   S
    Zr17   O110      2.05545      .   S
    N111   O112      1.31241      .   S
    Zr11   O112      2.05721      .   S
    N111   O113      0.96989      .   S
    Zr10   O113      1.71680      .   S
    N114   O115      1.31174      .   S
    Zr13   O115      2.05636      .   S
    N114   O116      0.96848      .   S
    Zr12   O116      1.71745      .   S
    N117   O118      0.96899      .   S
    Zr18   O118      1.71549      .   S
    N117   O119      1.31142      .   S
    Zr19   O119      2.05602      .   S
