# CIF file generated by openbabel 2.4.90, see http://openbabel.sf.net
data_I
_chemical_name_common ''
_cell_length_a 13.144
_cell_length_b 13.126
_cell_length_c 13.66
_cell_angle_alpha 89.933
_cell_angle_beta 89.933
_cell_angle_gamma 89.989
_space_group_name_H-M_alt 'P 1'
_space_group_name_Hall 'P 1'
loop_
    _symmetry_equiv_pos_as_xyz
    x,y,z
loop_
    _atom_site_label
    _atom_site_type_symbol
    _atom_site_fract_x
    _atom_site_fract_y
    _atom_site_fract_z
    _atom_site_occupancy
    N0      N    0.00000   0.99999   0.49998   1.000
    N1      N    0.50000   0.99996   0.99998   1.000
    N2      N    0.49999   0.49999   0.49997   1.000
    N3      N    0.99998   0.50000   0.99997   1.000
    Zr4     Zr   0.75067   0.25072   0.75090   1.000
    Zr5     Zr   0.24929   0.74925   0.24904   1.000
    Zr6     Zr   0.74929   0.24966   0.25086   1.000
    Zr7     Zr   0.25067   0.75030   0.74911   1.000
    O8      O    0.16001   0.84288   0.67422   1.000
    O9      O    0.82638   0.17471   0.67737   1.000
    O10     O    0.17360   0.82527   0.32258   1.000
    O11     O    0.83997   0.15710   0.32575   1.000
    O12     O    0.17466   0.67439   0.82268   1.000
    O13     O    0.32637   0.82607   0.82259   1.000
    O14     O    0.34086   0.65749   0.67429   1.000
    O15     O    0.84308   0.34101   0.82564   1.000
    O16     O    0.65788   0.15995   0.82583   1.000
    O17     O    0.67469   0.32641   0.67736   1.000
    O18     O    0.15688   0.65897   0.17431   1.000
    O19     O    0.34210   0.84000   0.17413   1.000
    O20     O    0.32528   0.67357   0.32259   1.000
    O21     O    0.82530   0.32558   0.17728   1.000
    O22     O    0.67360   0.17388   0.17738   1.000
    O23     O    0.65909   0.34247   0.32567   1.000
loop_
    _geom_bond_atom_site_label_1
    _geom_bond_atom_site_label_2
    _geom_bond_distance
    _geom_bond_site_symmetry_2
    _ccdc_geom_bond_type
    N0     O8        3.78677      .   S
    Zr7    O8        1.98559      .   S
    N0     O9        4.04192  1_465   S
    Zr4    O9        1.73038      .   S
    N0     O10       4.04189      .   S
    Zr5    O10       1.73038      .   S
    N0     O11       3.78679  1_465   S
    Zr6    O11       1.98566      .   S
    Zr7    O12       1.73109      .   S
    N3     O12       4.04386  1_655   S
    Zr7    O13       1.72963      .   S
    N1     O13       4.03952      .   S
    Zr7    O14       1.98340      .   S
    N2     O14       3.78373      .   S
    Zr4    O15       1.98198      .   S
    N3     O15       3.78204      .   S
    Zr4    O16       1.98728      .   S
    N1     O16       3.78876  1_565   S
    Zr4    O17       1.73011      .   S
    N2     O17       4.04148      .   S
    Zr5    O18       1.98196      .   S
    N3     O18       3.78196  1_656   S
    Zr5    O19       1.98722      .   S
    N1     O19       3.78856  1_556   S
    Zr5    O20       1.73011      .   S
    N2     O20       4.04148      .   S
    N3     O21       4.04417  1_556   S
    Zr6    O21       1.73123      .   S
    Zr6    O22       1.72965      .   S
    N1     O22       4.03956  1_566   S
    Zr6    O23       1.98329      .   S
    N2     O23       3.78351      .   S
