# CIF file generated by openbabel 2.4.90, see http://openbabel.sf.net
data_I
_chemical_name_common ''
_cell_length_a 13.144
_cell_length_b 13.126
_cell_length_c 13.66
_cell_angle_alpha 89.933
_cell_angle_beta 89.933
_cell_angle_gamma 89.989
_space_group_name_H-M_alt 'P 1'
_space_group_name_Hall 'P 1'
loop_
    _symmetry_equiv_pos_as_xyz
    x,y,z
loop_
    _atom_site_label
    _atom_site_type_symbol
    _atom_site_fract_x
    _atom_site_fract_y
    _atom_site_fract_z
    _atom_site_occupancy
    N0      N    0.00000   0.99999   0.49998   1.000
    N1      N    0.50000   0.99996   0.99998   1.000
    N2      N    0.49999   0.49999   0.49997   1.000
    N3      N    0.99998   0.50000   0.99997   1.000
    Zr4     Zr   0.75067   0.25072   0.75090   1.000
    O5      O    0.80915   0.15693   0.67723   1.000
    O6      O    0.65749   0.30859   0.67768   1.000
    O7      O    0.66594   0.16884   0.83616   1.000
    O8      O    0.64983   0.15106   0.81549   1.000
    O9      O    0.84362   0.19250   0.67751   1.000
    O10     O    0.83493   0.33210   0.83592   1.000
    O11     O    0.85123   0.34992   0.81536   1.000
    O12     O    0.69189   0.34423   0.67704   1.000
    Zr13    Zr   0.24929   0.74925   0.24904   1.000
    O14     O    0.14873   0.65006   0.18459   1.000
    O15     O    0.16502   0.66788   0.16403   1.000
    O16     O    0.30808   0.65575   0.32291   1.000
    O17     O    0.15636   0.80748   0.32244   1.000
    O18     O    0.35015   0.84889   0.18447   1.000
    O19     O    0.33405   0.83111   0.16379   1.000
    O20     O    0.34248   0.69139   0.32227   1.000
    O21     O    0.19083   0.84305   0.32272   1.000
    Zr22    Zr   0.74929   0.24966   0.25086   1.000
    O23     O    0.80757   0.34288   0.17748   1.000
    O24     O    0.65586   0.19117   0.17712   1.000
    O25     O    0.66800   0.33437   0.33597   1.000
    O26     O    0.65018   0.35058   0.31537   1.000
    O27     O    0.84302   0.30829   0.17709   1.000
    O28     O    0.84880   0.14895   0.31543   1.000
    O29     O    0.69135   0.15660   0.17763   1.000
    O30     O    0.83113   0.16525   0.33608   1.000
    Zr31    Zr   0.25067   0.75030   0.74911   1.000
    O32     O    0.15117   0.85104   0.68454   1.000
    O33     O    0.16884   0.83473   0.66390   1.000
    O34     O    0.15694   0.69170   0.82287   1.000
    O35     O    0.30863   0.84336   0.82234   1.000
    O36     O    0.19238   0.65709   0.82248   1.000
    O37     O    0.34411   0.80878   0.82284   1.000
    O38     O    0.34977   0.64939   0.68459   1.000
    O39     O    0.33196   0.66559   0.66399   1.000
loop_
    _geom_bond_atom_site_label_1
    _geom_bond_atom_site_label_2
    _geom_bond_distance
    _geom_bond_site_symmetry_2
    _ccdc_geom_bond_type
    Zr4    O5        1.76633      .   S
    N0     O5        4.04899  1_465   S
    Zr4    O6        1.75456      .   S
    N2     O6        4.06018      .   S
    Zr4    O7        1.93558      .   S
    N1     O7        3.82852  1_565   S
    Zr4    O8        2.05955      .   S
    N1     O8        3.76053  1_565   S
    Zr4    O9        1.75505      .   S
    N0     O9        4.06099  1_465   S
    Zr4    O10       1.92940      .   S
    N3     O10       3.82226      .   S
    Zr4    O11       2.05513      .   S
    N3     O11       3.75334      .   S
    Zr4    O12       1.76630      .   S
    N2     O12       4.04892      .   S
    Zr13   O14       2.05509      .   S
    N3     O14       3.75329  1_656   S
    Zr13   O15       1.92939      .   S
    N3     O15       3.82215  1_656   S
    Zr13   O16       1.76629      .   S
    N2     O16       4.04892      .   S
    Zr13   O17       1.75501      .   S
    N0     O17       4.06098      .   S
    Zr13   O18       2.05948      .   S
    N1     O18       3.76035  1_556   S
    Zr13   O19       1.93555      .   S
    N1     O19       3.82830  1_556   S
    Zr13   O20       1.75458      .   S
    N2     O20       4.06019      .   S
    Zr13   O21       1.76636      .   S
    N0     O21       4.04894      .   S
    Zr22   O23       1.75631      .   S
    N3     O23       4.06254  1_556   S
    Zr22   O24       1.76558      .   S
    N1     O24       4.04702  1_566   S
    Zr22   O25       1.93113      .   S
    N2     O25       3.82348      .   S
    Zr22   O26       2.05603      .   S
    N2     O26       3.75506      .   S
    Zr22   O27       1.76672      .   S
    N3     O27       4.05193  1_556   S
    Zr22   O28       2.05817      .   S
    N0     O28       3.75843  1_465   S
    Zr22   O29       1.75436      .   S
    N1     O29       4.05825  1_566   S
    Zr22   O30       1.93372      .   S
    N0     O30       3.82667  1_465   S
    Zr31   O32       2.05809      .   S
    N0     O32       3.75841      .   S
    Zr31   O33       1.93365      .   S
    N0     O33       3.82664      .   S
    Zr31   O34       1.76652      .   S
    N3     O34       4.05167  1_655   S
    Zr31   O35       1.75444      .   S
    N1     O35       4.05812      .   S
    Zr31   O36       1.75624      .   S
    N3     O36       4.06217  1_655   S
    Zr31   O37       1.76548      .   S
    N1     O37       4.04708      .   S
    Zr31   O38       2.05613      .   S
    N2     O38       3.75529      .   S
    Zr31   O39       1.93125      .   S
    N2     O39       3.82369      .   S
