# CIF file generated by openbabel 2.4.90, see http://openbabel.sf.net
data_I
_chemical_name_common ''
_cell_length_a 15.254
_cell_length_b 13.761
_cell_length_c 22.276
_cell_angle_alpha 89.97
_cell_angle_beta 90.024
_cell_angle_gamma 90.154
_space_group_name_H-M_alt 'P 1'
_space_group_name_Hall 'P 1'
loop_
    _symmetry_equiv_pos_as_xyz
    x,y,z
loop_
    _atom_site_label
    _atom_site_type_symbol
    _atom_site_fract_x
    _atom_site_fract_y
    _atom_site_fract_z
    _atom_site_occupancy
    Cd0     Cd   0.96592   0.83145   0.80083   1.000
    Cd1     Cd   0.03396   0.66917   0.30136   1.000
    Cd2     Cd   0.53395   0.66917   0.30136   1.000
    Cd3     Cd   0.03409   0.16853   0.19918   1.000
    Cd4     Cd   0.53409   0.16852   0.19918   1.000
    Cd5     Cd   0.46601   0.33081   0.69864   1.000
    Cd6     Cd   0.96604   0.33082   0.69860   1.000
    Ni7     Ni   0.21705   0.58110   0.76745   1.000
    Ni8     Ni   0.71706   0.58110   0.76740   1.000
    Ni9     Ni   0.28309   0.91933   0.26956   1.000
    Ni10    Ni   0.78309   0.91933   0.26956   1.000
    Ni11    Ni   0.28294   0.41888   0.23255   1.000
    Ni12    Ni   0.78294   0.41890   0.23254   1.000
    Ni13    Ni   0.21690   0.08065   0.73043   1.000
    Ni14    Ni   0.71692   0.08068   0.73047   1.000
    Cd15    Cd   0.46591   0.83145   0.80083   1.000
    C16     C    0.30096   0.66300   0.79896   1.000
    C17     C    0.80096   0.66300   0.79890   1.000
    C18     C    0.30332   0.00000   0.76070   1.000
    C19     C    0.80335   0.00000   0.76060   1.000
    C20     C    0.13211   0.00000   0.76428   1.000
    C21     C    0.63208   0.00000   0.76420   1.000
    C22     C    0.13132   0.16043   0.69963   1.000
    C23     C    0.63132   0.16041   0.69962   1.000
    C24     C    0.19895   0.83755   0.30077   1.000
    C25     C    0.69896   0.83755   0.30078   1.000
    C26     C    0.19637   0.49912   0.26199   1.000
    C27     C    0.69637   0.49911   0.26200   1.000
    C28     C    0.36763   0.49823   0.26568   1.000
    C29     C    0.86765   0.49820   0.26560   1.000
    C30     C    0.36858   0.33915   0.20170   1.000
    C31     C    0.86859   0.33914   0.20178   1.000
    C32     C    0.19904   0.33699   0.20104   1.000
    C33     C    0.69904   0.33698   0.20105   1.000
    C34     C    0.19666   0.99912   0.23930   1.000
    C35     C    0.69667   0.99912   0.23929   1.000
    C36     C    0.36790   0.99786   0.23576   1.000
    C37     C    0.86791   0.99788   0.23578   1.000
    C38     C    0.36866   0.83958   0.30040   1.000
    C39     C    0.86869   0.83957   0.30036   1.000
    C40     C    0.30103   0.16242   0.69920   1.000
    C41     C    0.80102   0.16244   0.69923   1.000
    C42     C    0.30361   0.50089   0.73797   1.000
    C43     C    0.80363   0.50087   0.73800   1.000
    C44     C    0.13236   0.50178   0.73432   1.000
    C45     C    0.63238   0.50176   0.73431   1.000
    C46     C    0.13138   0.66083   0.79823   1.000
    C47     C    0.63141   0.66082   0.79824   1.000
    Ts48    Ts   0.92876   0.79322   0.80639   1.000
    Ts49    Ts   0.93020   0.87107   0.79372   1.000
    Ts50    Ts   0.00322   0.87206   0.79607   1.000
    Ts51    Ts   0.00303   0.79180   0.80648   1.000
    Ts52    Ts   0.97511   0.81665   0.76712   1.000
    Ts53    Ts   0.96538   0.84730   0.83485   1.000
    Ts54    Ts   0.07106   0.70733   0.30719   1.000
    Ts55    Ts   0.06959   0.62951   0.29427   1.000
    Ts56    Ts   0.99660   0.62877   0.29664   1.000
    Ts57    Ts   0.99697   0.70867   0.30742   1.000
    Ts58    Ts   0.02464   0.68430   0.26766   1.000
    Ts59    Ts   0.03475   0.65305   0.33532   1.000
    Ts60    Ts   0.57106   0.70732   0.30717   1.000
    Ts61    Ts   0.56959   0.62952   0.29430   1.000
    Ts62    Ts   0.49659   0.62877   0.29665   1.000
    Ts63    Ts   0.49696   0.70867   0.30741   1.000
    Ts64    Ts   0.52464   0.68431   0.26767   1.000
    Ts65    Ts   0.53474   0.65305   0.33532   1.000
    Ts66    Ts   0.07125   0.20676   0.19362   1.000
    Ts67    Ts   0.06982   0.12890   0.20621   1.000
    Ts68    Ts   0.99677   0.12795   0.20396   1.000
    Ts69    Ts   0.99697   0.20816   0.19355   1.000
    Ts70    Ts   0.02490   0.18333   0.23289   1.000
    Ts71    Ts   0.03461   0.15268   0.16516   1.000
    Ts72    Ts   0.57125   0.20676   0.19362   1.000
    Ts73    Ts   0.56981   0.12889   0.20623   1.000
    Ts74    Ts   0.49679   0.12793   0.20396   1.000
    Ts75    Ts   0.49698   0.20816   0.19355   1.000
    Ts76    Ts   0.52491   0.18333   0.23289   1.000
    Ts77    Ts   0.53462   0.15268   0.16516   1.000
    Ts78    Ts   0.42893   0.29263   0.69280   1.000
    Ts79    Ts   0.43037   0.37047   0.70569   1.000
    Ts80    Ts   0.50338   0.37121   0.70336   1.000
    Ts81    Ts   0.50302   0.29134   0.69260   1.000
    Ts82    Ts   0.47533   0.31568   0.73234   1.000
    Ts83    Ts   0.46523   0.34693   0.66468   1.000
    Ts84    Ts   0.92895   0.29266   0.69281   1.000
    Ts85    Ts   0.93040   0.37047   0.70567   1.000
    Ts86    Ts   0.00340   0.37122   0.70333   1.000
    Ts87    Ts   0.00304   0.29133   0.69255   1.000
    Ts88    Ts   0.97536   0.31568   0.73231   1.000
    Ts89    Ts   0.96526   0.34694   0.66465   1.000
    Ts90    Ts   0.42875   0.79321   0.80639   1.000
    Ts91    Ts   0.43018   0.87108   0.79375   1.000
    Ts92    Ts   0.50323   0.87200   0.79602   1.000
    Ts93    Ts   0.50303   0.79181   0.80647   1.000
    Ts94    Ts   0.47509   0.81665   0.76712   1.000
    Ts95    Ts   0.46538   0.84730   0.83485   1.000
    Ts96    Ts   0.31879   0.68092   0.80514   1.000
    Ts97    Ts   0.81879   0.68091   0.80510   1.000
    Ts98    Ts   0.32179   0.98345   0.76700   1.000
    Ts99    Ts   0.82182   0.98343   0.76690   1.000
    Ts100   Ts   0.11402   0.98442   0.77170   1.000
    Ts101   Ts   0.61402   0.98437   0.77160   1.000
    Ts102   Ts   0.11322   0.17773   0.69324   1.000
    Ts103   Ts   0.61323   0.17774   0.69325   1.000
    Ts104   Ts   0.18105   0.81959   0.30679   1.000
    Ts105   Ts   0.68106   0.81957   0.30679   1.000
    Ts106   Ts   0.17787   0.51615   0.26803   1.000
    Ts107   Ts   0.67787   0.51615   0.26806   1.000
    Ts108   Ts   0.38571   0.51481   0.27286   1.000
    Ts109   Ts   0.88572   0.51479   0.27280   1.000
    Ts110   Ts   0.38664   0.32191   0.19523   1.000
    Ts111   Ts   0.88664   0.32190   0.19528   1.000
    Ts112   Ts   0.18122   0.31907   0.19486   1.000
    Ts113   Ts   0.68121   0.31907   0.19487   1.000
    Ts114   Ts   0.17820   0.01596   0.23296   1.000
    Ts115   Ts   0.67820   0.01595   0.23297   1.000
    Ts116   Ts   0.38599   0.01416   0.22835   1.000
    Ts117   Ts   0.88598   0.01419   0.22836   1.000
    Ts118   Ts   0.38676   0.82228   0.30677   1.000
    Ts119   Ts   0.88679   0.82227   0.30675   1.000
    Ts120   Ts   0.31894   0.18037   0.69317   1.000
    Ts121   Ts   0.81893   0.18041   0.69323   1.000
    Ts122   Ts   0.32210   0.48385   0.73191   1.000
    Ts123   Ts   0.82213   0.48384   0.73194   1.000
    Ts124   Ts   0.11428   0.48519   0.72714   1.000
    Ts125   Ts   0.61429   0.48518   0.72714   1.000
    Ts126   Ts   0.11334   0.67805   0.80475   1.000
    Ts127   Ts   0.61337   0.67806   0.80474   1.000
loop_
    _geom_bond_atom_site_label_1
    _geom_bond_atom_site_label_2
    _geom_bond_distance
    _geom_bond_site_symmetry_2
    _ccdc_geom_bond_type
    C32    Ni11      1.84199      .   S
    C33    Ni12      1.84201      .   S
    C30    Ni11      1.84174      .   S
    C31    Ni12      1.84119      .   S
    Ni12   C27       1.84461      .   S
    Ni12   C29       1.84267      .   S
    Ni11   C26       1.84457      .   S
    Ni11   C28       1.84346      .   S
    C36    Ni9       1.84411      .   S
    C37    Ni10      1.84412      .   S
    C35    Ni10      1.84508      .   S
    C34    Ni9       1.84518      .   S
    Ni9    C38       1.84014      .   S
    Ni9    C24       1.84099      .   S
    Ni10   C39       1.84021      .   S
    Ni10   C25       1.84101      .   S
    C40    Ni13      1.84100      .   S
    C41    Ni14      1.84072      .   S
    C23    Ni14      1.84032      .   S
    C22    Ni13      1.84022      .   S
    Ni13   C18       1.85211      .   S
    Ni13   C20       1.86159      .   S
    Ni14   C19       1.85142      .   S
    Ni14   C21       1.86126      .   S
    C45    Ni8       1.84299      .   S
    C44    Ni7       1.84325      .   S
    C42    Ni7       1.84451      .   S
    C43    Ni8       1.84414      .   S
    Ni8    C47       1.84163      .   S
    Ni8    C17       1.84193      .   S
    Ni7    C46       1.84140      .   S
    Ni7    C16       1.84224      .   S
    Cd0    Ts48      0.78224      .   S
    Cd0    Ts49      0.78769      .   S
    Cd0    Ts50      0.80347  1_655   S
    Cd0    Ts51      0.79722  1_655   S
    Cd0    Ts52      0.79091      .   S
    Cd0    Ts53      0.78874      .   S
    Cd1    Ts54      0.78183      .   S
    Cd1    Ts55      0.78735      .   S
    Cd1    Ts56      0.80198  1_455   S
    Cd1    Ts57      0.79617  1_455   S
    Cd1    Ts58      0.79180      .   S
    Cd1    Ts59      0.78840      .   S
    Cd2    Ts60      0.78173      .   S
    Cd2    Ts61      0.78723      .   S
    Cd2    Ts62      0.80201      .   S
    Cd2    Ts63      0.79617      .   S
    Cd2    Ts64      0.79172      .   S
    Cd2    Ts65      0.78840      .   S
    Cd3    Ts66      0.78221      .   S
    Cd3    Ts67      0.78767      .   S
    Cd3    Ts68      0.80334  1_455   S
    Cd3    Ts69      0.79705  1_455   S
    Cd3    Ts70      0.79091      .   S
    Cd3    Ts71      0.78873      .   S
    Cd4    Ts72      0.78221      .   S
    Cd4    Ts73      0.78762      .   S
    Cd4    Ts74      0.80339      .   S
    Cd4    Ts75      0.79705      .   S
    Cd4    Ts76      0.79091      .   S
    Cd4    Ts77      0.78872      .   S
    Cd5    Ts78      0.78191      .   S
    Cd5    Ts79      0.78724      .   S
    Cd5    Ts80      0.80208      .   S
    Cd5    Ts81      0.79603      .   S
    Cd5    Ts82      0.79179      .   S
    Cd5    Ts83      0.78840      .   S
    Cd6    Ts84      0.78165      .   S
    Cd6    Ts85      0.78729      .   S
    Cd6    Ts86      0.80205  1_655   S
    Cd6    Ts87      0.79610  1_655   S
    Cd6    Ts88      0.79207      .   S
    Cd6    Ts89      0.78810      .   S
    Cd15   Ts90      0.78216      .   S
    Cd15   Ts91      0.78781      .   S
    Cd15   Ts92      0.80337      .   S
    Cd15   Ts93      0.79713      .   S
    Cd15   Ts94      0.79091      .   S
    Cd15   Ts95      0.78874      .   S
    C16    Ts96      0.39157      .   S
    C17    Ts97      0.39171      .   S
    C18    Ts98      0.38891  1_545   S
    C19    Ts99      0.38910  1_545   S
    C20    Ts100     0.38615  1_545   S
    C21    Ts101     0.38605  1_545   S
    C22    Ts102     0.39174      .   S
    C23    Ts103     0.39172      .   S
    C24    Ts104     0.39154      .   S
    C25    Ts105     0.39150      .   S
    C26    Ts106     0.39123      .   S
    C27    Ts107     0.39142      .   S
    C28    Ts108     0.39160      .   S
    C29    Ts109     0.39187      .   S
    C30    Ts110     0.39158      .   S
    C31    Ts111     0.39175      .   S
    C32    Ts112     0.39158      .   S
    C33    Ts113     0.39157      .   S
    C34    Ts114     0.39143  1_565   S
    C35    Ts115     0.39144  1_565   S
    C36    Ts116     0.39168  1_565   S
    C37    Ts117     0.39165  1_565   S
    C38    Ts118     0.39158      .   S
    C39    Ts119     0.39172      .   S
    C40    Ts120     0.39153      .   S
    C41    Ts121     0.39153      .   S
    C42    Ts122     0.39141      .   S
    C43    Ts123     0.39142      .   S
    C44    Ts124     0.39159      .   S
    C45    Ts125     0.39163      .   S
    C46    Ts126     0.39174      .   S
    C47    Ts127     0.39175      .   S
