# CIF file generated by openbabel 2.4.90, see http://openbabel.sf.net
data_I
_chemical_name_common ''
_cell_length_a 15.604
_cell_length_b 18.904
_cell_length_c 19.853
_cell_angle_alpha 88.505
_cell_angle_beta 90.614
_cell_angle_gamma 90.146
_space_group_name_H-M_alt 'P 1'
_space_group_name_Hall 'P 1'
loop_
    _symmetry_equiv_pos_as_xyz
    x,y,z
loop_
    _atom_site_label
    _atom_site_type_symbol
    _atom_site_fract_x
    _atom_site_fract_y
    _atom_site_fract_z
    _atom_site_occupancy
    Zr0     Zr   0.89201   0.94126   0.51409   1.000
    Zr1     Zr   0.38968   0.55848   0.48537   1.000
    Zr2     Zr   0.10798   0.05872   0.48593   1.000
    Zr3     Zr   0.61031   0.44151   0.51465   1.000
    N4      N    0.90431   0.92333   0.01573   1.000
    O5      O    0.90242   0.93018   0.23777   1.000
    O6      O    0.89857   0.93125   0.79258   1.000
    N7      N    0.16248   0.77175   0.49809   1.000
    O8      O    0.05878   0.84885   0.50948   1.000
    O9      O    0.14356   0.88923   0.49155   1.000
    O10     O    0.24798   0.67828   0.49262   1.000
    N11     N    0.66263   0.72778   0.50117   1.000
    O12     O    0.55817   0.65016   0.49062   1.000
    O13     O    0.64496   0.61059   0.50827   1.000
    O14     O    0.74883   0.82152   0.50621   1.000
    N15     N    0.40411   0.57657   0.98375   1.000
    O16     O    0.40137   0.56976   0.76171   1.000
    O17     O    0.39775   0.56852   0.20688   1.000
    N18     N    0.09568   0.07665   0.98426   1.000
    O19     O    0.09757   0.06980   0.76223   1.000
    O20     O    0.10142   0.06873   0.20743   1.000
    N21     N    0.59587   0.42341   0.01624   1.000
    O22     O    0.59861   0.43022   0.23830   1.000
    O23     O    0.60224   0.43146   0.79313   1.000
    N24     N    0.33735   0.27221   0.49878   1.000
    O25     O    0.44181   0.34983   0.50936   1.000
    O26     O    0.35503   0.38939   0.49171   1.000
    O27     O    0.25115   0.17847   0.49377   1.000
    N28     N    0.83751   0.22823   0.50191   1.000
    O29     O    0.94121   0.15114   0.49053   1.000
    O30     O    0.85642   0.11075   0.50844   1.000
    O31     O    0.75201   0.32171   0.50739   1.000
loop_
    _geom_bond_atom_site_label_1
    _geom_bond_atom_site_label_2
    _geom_bond_distance
    _geom_bond_site_symmetry_2
    _ccdc_geom_bond_type
    N4     O5        4.41387      .   S
    Zr0    O5        5.49931      .   S
    N4     O6        4.42881  1_554   S
    Zr0    O6        5.52706      .   S
    N7     O8        2.19785      .   S
    Zr0    O8        3.14155  1_655   S
    N7     O9        2.24126      .   S
    Zr2    O9        3.25196  1_545   S
    N7     O10       2.22251      .   S
    Zr1    O10       3.17606      .   S
    N11    O12       2.20231      .   S
    Zr1    O12       3.14764      .   S
    N11    O13       2.23264      .   S
    Zr3    O13       3.23986      .   S
    N11    O14       2.22571      .   S
    Zr0    O14       3.18200      .   S
    N15    O16       4.41311      .   S
    Zr1    O16       5.49692      .   S
    N15    O17       4.43059  1_556   S
    Zr1    O17       5.53002      .   S
    N18    O19       4.41362      .   S
    Zr2    O19       5.49906      .   S
    N18    O20       4.42906  1_556   S
    Zr2    O20       5.52731      .   S
    N21    O22       4.41339      .   S
    Zr3    O22       5.49720      .   S
    N21    O23       4.43031  1_554   S
    Zr3    O23       5.52974      .   S
    N24    O25       2.20242      .   S
    Zr3    O25       3.14772      .   S
    N24    O26       2.23261      .   S
    Zr1    O26       3.23989      .   S
    N24    O27       2.22563      .   S
    Zr2    O27       3.18192      .   S
    N28    O29       2.19784      .   S
    Zr2    O29       3.14161  1_455   S
    N28    O30       2.24129      .   S
    Zr0    O30       3.25198  1_565   S
    N28    O31       2.22252      .   S
    Zr3    O31       3.17610      .   S
