# CIF file generated by openbabel 2.4.90, see http://openbabel.sf.net
data_I
_chemical_name_common ''
_cell_length_a 12.365
_cell_length_b 20.163
_cell_length_c 20.18
_cell_angle_alpha 102.302
_cell_angle_beta 94.912
_cell_angle_gamma 94.696
_space_group_name_H-M_alt 'P 1'
_space_group_name_Hall 'P 1'
loop_
    _symmetry_equiv_pos_as_xyz
    x,y,z
loop_
    _atom_site_label
    _atom_site_type_symbol
    _atom_site_fract_x
    _atom_site_fract_y
    _atom_site_fract_z
    _atom_site_occupancy
    N0      N    0.37966   0.15538   0.61426   1.000
    N1      N    0.30386   0.40022   0.30564   1.000
    N2      N    0.45831   0.68946   0.39980   1.000
    N3      N    0.11396   0.68448   0.78246   1.000
    N4      N    0.04680   0.93463   0.48173   1.000
    N5      N    0.54686   0.48172   0.93462   1.000
    N6      N    0.95980   0.28492   0.80354   1.000
    N7      N    0.45993   0.80358   0.28480   1.000
    N8      N    0.80382   0.30585   0.40036   1.000
    N9      N    0.95815   0.40000   0.68956   1.000
    N10     N    0.61383   0.78241   0.68402   1.000
    N11     N    0.87966   0.61448   0.15534   1.000
    Zr12    Zr   0.50489   0.48363   0.75530   1.000
    O13     O    0.51819   0.48288   0.81320   1.000
    O14     O    0.34824   0.46127   0.73667   1.000
    O15     O    0.62975   0.45302   0.73549   1.000
    O16     O    0.54308   0.56697   0.73337   1.000
    Zr17    Zr   0.91217   0.60581   0.33317   1.000
    O18     O    0.90199   0.60875   0.27576   1.000
    O19     O    0.06865   0.62805   0.35229   1.000
    O20     O    0.78698   0.63632   0.35326   1.000
    O21     O    0.87405   0.52205   0.35381   1.000
    Zr22    Zr   0.21060   0.54320   0.04464   1.000
    O23     O    0.33609   0.52047   0.00413   1.000
    O24     O    0.08677   0.56900   0.08540   1.000
    Zr25    Zr   0.41201   0.33328   0.60583   1.000
    O26     O    0.37392   0.35386   0.52199   1.000
    O27     O    0.56847   0.35241   0.62811   1.000
    O28     O    0.28684   0.35340   0.63635   1.000
    O29     O    0.40185   0.27586   0.60870   1.000
    Zr30    Zr   0.71048   0.04472   0.54308   1.000
    O31     O    0.83601   0.00419   0.52053   1.000
    O32     O    0.58667   0.08545   0.56872   1.000
    Zr33    Zr   0.00503   0.75533   0.48350   1.000
    O34     O    0.12988   0.73546   0.45289   1.000
    O35     O    0.84840   0.73667   0.46101   1.000
    O36     O    0.04322   0.73350   0.56692   1.000
    O37     O    0.01829   0.81322   0.48279   1.000
    O38     O    0.18233   0.58577   0.97045   1.000
    O39     O    0.13738   0.46819   0.97584   1.000
    O40     O    0.28325   0.61871   0.11338   1.000
    O41     O    0.23820   0.50020   0.11850   1.000
    O42     O    0.68222   0.97045   0.58550   1.000
    O43     O    0.78313   0.11343   0.61864   1.000
    O44     O    0.63732   0.97595   0.46803   1.000
    O45     O    0.73797   0.11867   0.50023   1.000
loop_
    _geom_bond_atom_site_label_1
    _geom_bond_atom_site_label_2
    _geom_bond_distance
    _geom_bond_site_symmetry_2
    _ccdc_geom_bond_type
    Zr12   O13       1.16947      .   S
    N5     O13       2.45092      .   S
    Zr12   O14       1.93815      .   S
    N9     O14       4.84091  1_655   S
    Zr12   O15       1.75525      .   S
    N9     O15       4.40730      .   S
    Zr12   O16       1.86160      .   S
    N10    O16       4.69004      .   S
    Zr17   O18       1.16914      .   S
    N11    O18       2.45057      .   S
    Zr17   O19       1.93646  1_655   S
    N2     O19       4.83665      .   S
    Zr17   O20       1.75965      .   S
    N2     O20       4.41410      .   S
    Zr17   O21       1.85766      .   S
    N8     O21       4.68025      .   S
    Zr22   O23       1.86019      .   S
    N5     O23       3.14042  1_556   S
    Zr22   O24       1.85881      .   S
    N11    O24       3.13740  1_655   S
    Zr25   O26       1.85770      .   S
    N1     O26       4.68089      .   S
    Zr25   O27       1.93618      .   S
    N9     O27       4.83617      .   S
    Zr25   O28       1.76041      .   S
    N9     O28       4.41541  1_655   S
    Zr25   O29       1.16864      .   S
    N0     O29       2.44971      .   S
    Zr30   O31       1.85855      .   S
    N4     O31       3.13916  1_465   S
    Zr30   O32       1.85642      .   S
    N0     O32       3.13467      .   S
    Zr33   O34       1.75620      .   S
    N2     O34       4.40889      .   S
    Zr33   O35       1.93808  1_455   S
    N2     O35       4.83986      .   S
    Zr33   O36       1.86117      .   S
    N3     O36       4.68874      .   S
    Zr33   O37       1.16855      .   S
    N4     O37       2.44945      .   S
    Zr22   O38       1.89939  1_554   S
    N3     O38       4.69165      .   S
    Zr22   O39       1.92368  1_554   S
    N6     O39       4.73864  1_655   S
    Zr22   O40       1.92660      .   S
    N7     O40       4.74464      .   S
    Zr22   O41       1.89775      .   S
    N1     O41       4.68729      .   S
    N10    O42       4.69233      .   S
    Zr30   O42       1.89971  1_545   S
    N6     O43       4.74557      .   S
    Zr30   O43       1.92693      .   S
    N7     O44       4.73797      .   S
    Zr30   O44       1.92350  1_545   S
    N8     O45       4.68898      .   S
    Zr30   O45       1.89839      .   S
