# CIF file generated by openbabel 2.4.90, see http://openbabel.sf.net
data_I
_chemical_name_common ''
_cell_length_a 18.445
_cell_length_b 18.422
_cell_length_c 18.413
_cell_angle_alpha 60.144
_cell_angle_beta 60.178
_cell_angle_gamma 60.191
_space_group_name_H-M_alt 'P 1'
_space_group_name_Hall 'P 1'
loop_
    _symmetry_equiv_pos_as_xyz
    x,y,z
loop_
    _atom_site_label
    _atom_site_type_symbol
    _atom_site_fract_x
    _atom_site_fract_y
    _atom_site_fract_z
    _atom_site_occupancy
    Zn0     Zn   0.79361   0.79371   0.79380   1.000
    Zn1     Zn   0.61987   0.79318   0.79328   1.000
    Zn2     Zn   0.79320   0.61949   0.79350   1.000
    Zn3     Zn   0.20673   0.20651   0.38062   1.000
    Zn4     Zn   0.20639   0.20628   0.20620   1.000
    Zn5     Zn   0.20680   0.38049   0.20651   1.000
    Zn6     Zn   0.38013   0.20680   0.20673   1.000
    Zn7     Zn   0.79327   0.79348   0.61939   1.000
