# CIF file generated by openbabel 2.4.90, see http://openbabel.sf.net
data_I
_chemical_name_common ''
_cell_length_a 18.445
_cell_length_b 18.422
_cell_length_c 18.413
_cell_angle_alpha 60.144
_cell_angle_beta 60.178
_cell_angle_gamma 60.191
_space_group_name_H-M_alt 'P 1'
_space_group_name_Hall 'P 1'
loop_
    _symmetry_equiv_pos_as_xyz
    x,y,z
loop_
    _atom_site_label
    _atom_site_type_symbol
    _atom_site_fract_x
    _atom_site_fract_y
    _atom_site_fract_z
    _atom_site_occupancy
    C0      C    0.79327   0.79348   0.61939   1.000
    C1      C    0.79361   0.79371   0.79380   1.000
    C2      C    0.61987   0.79318   0.79328   1.000
    C3      C    0.79320   0.61949   0.79350   1.000
    C4      C    0.20673   0.20651   0.38062   1.000
    C5      C    0.20639   0.20628   0.20620   1.000
    C6      C    0.20680   0.38049   0.20651   1.000
    C7      C    0.38013   0.20680   0.20673   1.000
    C8      C    0.66410   0.95223   0.43146   1.000
    C9      C    0.95236   0.66437   0.95222   1.000
    C10     C    0.43232   0.95131   0.66452   1.000
    C11     C    0.95125   0.43198   0.95183   1.000
    C12     C    0.66411   0.43158   0.95221   1.000
    C13     C    0.95137   0.95183   0.43186   1.000
    C14     C    0.43229   0.66440   0.95138   1.000
    C15     C    0.95228   0.95215   0.66449   1.000
    C16     C    0.66408   0.95255   0.95259   1.000
    C17     C    0.95159   0.43187   0.66451   1.000
    C18     C    0.43256   0.95117   0.95131   1.000
    C19     C    0.95179   0.66438   0.43166   1.000
    C20     C    0.04821   0.33561   0.56835   1.000
    C21     C    0.33593   0.04744   0.04741   1.000
    C22     C    0.04841   0.56812   0.33550   1.000
    C23     C    0.56744   0.04882   0.04870   1.000
    C24     C    0.56771   0.33559   0.04863   1.000
    C25     C    0.04864   0.04816   0.56816   1.000
    C26     C    0.33590   0.56841   0.04780   1.000
    C27     C    0.04772   0.04784   0.33552   1.000
    C28     C    0.04763   0.33562   0.04700   1.000
    C29     C    0.56768   0.04867   0.33549   1.000
    C30     C    0.04875   0.56801   0.04818   1.000
    C31     C    0.33590   0.04775   0.56855   1.000
    C32     C    0.59221   0.97354   0.46071   1.000
    C33     C    0.97362   0.59236   0.97350   1.000
    C34     C    0.46119   0.97303   0.59245   1.000
    C35     C    0.97300   0.46101   0.97332   1.000
    C36     C    0.59222   0.46077   0.97354   1.000
    C37     C    0.97306   0.97331   0.46094   1.000
    C38     C    0.46117   0.59238   0.97308   1.000
    C39     C    0.97357   0.97348   0.59244   1.000
    C40     C    0.59220   0.97371   0.97375   1.000
    C41     C    0.97319   0.46093   0.59240   1.000
    C42     C    0.46133   0.97294   0.97304   1.000
    C43     C    0.97330   0.59237   0.46082   1.000
    C44     C    0.02670   0.40762   0.53919   1.000
    C45     C    0.40780   0.02628   0.02626   1.000
    C46     C    0.02681   0.53905   0.40757   1.000
    C47     C    0.53867   0.02705   0.02690   1.000
    C48     C    0.53883   0.40761   0.02694   1.000
    C49     C    0.02694   0.02668   0.53907   1.000
    C50     C    0.40778   0.53922   0.02647   1.000
    C51     C    0.02643   0.02651   0.40758   1.000
    C52     C    0.02638   0.40763   0.02648   1.000
    C53     C    0.53881   0.02696   0.40756   1.000
    C54     C    0.02700   0.53898   0.02669   1.000
    C55     C    0.40779   0.02644   0.53930   1.000
    C56     C    0.55374   0.94622   0.55350   1.000
    C57     C    0.61112   0.88880   0.61073   1.000
    C58     C    0.94627   0.55372   0.94649   1.000
    C59     C    0.88887   0.61111   0.88924   1.000
    C60     C    0.55372   0.55349   0.94626   1.000
    C61     C    0.61109   0.61073   0.88880   1.000
    C62     C    0.94628   0.94645   0.55372   1.000
    C63     C    0.88888   0.88920   0.61110   1.000
    C64     C    0.55387   0.94634   0.94640   1.000
    C65     C    0.61136   0.88891   0.88916   1.000
    C66     C    0.94615   0.55364   0.55360   1.000
    C67     C    0.88863   0.61098   0.61090   1.000
    C68     C    0.05385   0.44634   0.44640   1.000
    C69     C    0.11138   0.38901   0.38912   1.000
    C70     C    0.44613   0.05369   0.05350   1.000
    C71     C    0.38864   0.11099   0.11094   1.000
    C72     C    0.44628   0.44649   0.05377   1.000
    C73     C    0.38891   0.38926   0.11119   1.000
    C74     C    0.05372   0.05354   0.44629   1.000
    C75     C    0.11111   0.11080   0.38891   1.000
    C76     C    0.05372   0.44627   0.05353   1.000
    C77     C    0.11115   0.38888   0.11070   1.000
    C78     C    0.44627   0.05375   0.44652   1.000
    C79     C    0.38888   0.11122   0.38920   1.000
    C80     C    0.75013   0.75000   0.70000   1.000
    C81     C    0.24987   0.24999   0.25002   1.000
    C82     C    0.69479   0.86675   0.57103   1.000
    C83     C    0.86696   0.69493   0.86725   1.000
    C84     C    0.57168   0.86651   0.69460   1.000
    C85     C    0.86654   0.57149   0.86708   1.000
    C86     C    0.69476   0.57108   0.86685   1.000
    C87     C    0.86658   0.86707   0.57142   1.000
    C88     C    0.57165   0.69454   0.86640   1.000
    C89     C    0.86698   0.86714   0.69498   1.000
    C90     C    0.69503   0.86714   0.86721   1.000
    C91     C    0.86638   0.57137   0.69476   1.000
    C92     C    0.57193   0.86656   0.86683   1.000
    C93     C    0.86654   0.69479   0.57122   1.000
    C94     C    0.13346   0.30519   0.42879   1.000
    C95     C    0.30497   0.13287   0.13278   1.000
    C96     C    0.13362   0.42862   0.30525   1.000
    C97     C    0.42807   0.13345   0.13316   1.000
    C98     C    0.42835   0.30545   0.13354   1.000
    C99     C    0.13342   0.13291   0.42859   1.000
    C100    C    0.30525   0.42890   0.13317   1.000
    C101    C    0.13302   0.13285   0.30500   1.000
    C102    C    0.13304   0.30506   0.13277   1.000
    C103    C    0.42832   0.13347   0.30542   1.000
    C104    C    0.13345   0.42849   0.13294   1.000
    C105    C    0.30521   0.13322   0.42898   1.000
    O106    O    0.37186   0.03686   0.03683   1.000
    O107    O    0.42697   0.03999   0.03988   1.000
    O108    O    0.43457   0.99961   0.99965   1.000
    O109    O    0.37184   0.55381   0.03714   1.000
    O110    O    0.42703   0.49286   0.04012   1.000
    O111    O    0.43448   0.56580   0.99978   1.000
    O112    O    0.03701   0.37162   0.03674   1.000
    O113    O    0.04005   0.42695   0.04001   1.000
    O114    O    0.99969   0.43432   0.99990   1.000
    O115    O    0.03787   0.55349   0.03744   1.000
    O116    O    0.04036   0.49263   0.04011   1.000
    O117    O    0.00031   0.56567   0.00010   1.000
    O118    O    0.55306   0.03793   0.03780   1.000
    O119    O    0.49240   0.04037   0.04020   1.000
    O120    O    0.56544   0.00038   0.00032   1.000
    O121    O    0.55327   0.37160   0.03778   1.000
    O122    O    0.49256   0.42705   0.04036   1.000
    O123    O    0.56552   0.43419   0.00024   1.000
    O124    O    0.41739   0.08234   0.08222   1.000
    O125    O    0.08244   0.41757   0.08211   1.000
    O126    O    0.41760   0.41788   0.08248   1.000
    O127    O    0.12209   0.34697   0.12174   1.000
    O128    O    0.12230   0.40869   0.12182   1.000
    O129    O    0.34681   0.12193   0.12186   1.000
    O130    O    0.40836   0.12222   0.12205   1.000
    O131    O    0.34708   0.40908   0.12218   1.000
    O132    O    0.40863   0.34735   0.12237   1.000
    O133    O    0.16971   0.25567   0.16949   1.000
    O134    O    0.25568   0.16957   0.16949   1.000
    O135    O    0.17013   0.40449   0.16972   1.000
    O136    O    0.40410   0.17012   0.16995   1.000
    O137    O    0.25602   0.40470   0.16984   1.000
    O138    O    0.40424   0.25613   0.17014   1.000
    O139    O    0.16970   0.16956   0.25560   1.000
    O140    O    0.22833   0.31524   0.22827   1.000
    O141    O    0.17021   0.40456   0.25588   1.000
    O142    O    0.31500   0.22840   0.22837   1.000
    O143    O    0.40423   0.17014   0.25607   1.000
    O144    O    0.12206   0.12182   0.34696   1.000
    O145    O    0.12250   0.40881   0.34719   1.000
    O146    O    0.40860   0.12234   0.34731   1.000
    O147    O    0.55325   0.03781   0.37152   1.000
    O148    O    0.03761   0.55359   0.37154   1.000
    O149    O    0.03708   0.03717   0.37155   1.000
    O150    O    0.17007   0.16971   0.40461   1.000
    O151    O    0.17009   0.25585   0.40471   1.000
    O152    O    0.25597   0.16987   0.40480   1.000
    O153    O    0.12226   0.12185   0.40875   1.000
    O154    O    0.08241   0.08217   0.41760   1.000
    O155    O    0.12242   0.34710   0.40896   1.000
    O156    O    0.08261   0.41767   0.41776   1.000
    O157    O    0.34705   0.12222   0.40909   1.000
    O158    O    0.41757   0.08248   0.41786   1.000
    O159    O    0.49254   0.04035   0.42704   1.000
    O160    O    0.56551   0.00025   0.43413   1.000
    O161    O    0.04033   0.49270   0.42699   1.000
    O162    O    0.00005   0.56571   0.43420   1.000
    O163    O    0.04008   0.04002   0.42694   1.000
    O164    O    0.99975   0.99991   0.43426   1.000
    O165    O    0.62816   0.96289   0.44609   1.000
    O166    O    0.96254   0.62838   0.44624   1.000
    O167    O    0.96221   0.96257   0.44640   1.000
    O168    O    0.04033   0.04011   0.49268   1.000
    O169    O    0.04028   0.42698   0.49280   1.000
    O170    O    0.42703   0.04010   0.49291   1.000
    O171    O    0.57297   0.95988   0.50711   1.000
    O172    O    0.95972   0.57301   0.50721   1.000
    O173    O    0.95967   0.95988   0.50733   1.000
    O174    O    0.03779   0.03742   0.55361   1.000
    O175    O    0.00025   0.00008   0.56576   1.000
    O176    O    0.03745   0.37161   0.55377   1.000
    O177    O    0.99995   0.43428   0.56580   1.000
    O178    O    0.37184   0.03710   0.55393   1.000
    O179    O    0.43449   0.99974   0.56588   1.000
    O180    O    0.50746   0.95963   0.57298   1.000
    O181    O    0.58243   0.91751   0.58212   1.000
    O182    O    0.95967   0.50729   0.57300   1.000
    O183    O    0.91739   0.58231   0.58225   1.000
    O184    O    0.95993   0.95997   0.57308   1.000
    O185    O    0.91758   0.91782   0.58241   1.000
    O186    O    0.65295   0.87778   0.59088   1.000
    O187    O    0.74403   0.83011   0.59521   1.000
    O188    O    0.87758   0.65289   0.59106   1.000
    O189    O    0.82991   0.74413   0.59530   1.000
    O190    O    0.87773   0.87814   0.59126   1.000
    O191    O    0.82993   0.83028   0.59541   1.000
    O192    O    0.96239   0.44640   0.62846   1.000
    O193    O    0.96292   0.96281   0.62847   1.000
    O194    O    0.44676   0.96217   0.62848   1.000
    O195    O    0.59140   0.87766   0.65266   1.000
    O196    O    0.87750   0.59118   0.65283   1.000
    O197    O    0.87793   0.87817   0.65304   1.000
    O198    O    0.77170   0.77174   0.65970   1.000
    O199    O    0.59577   0.82985   0.74394   1.000
    O200    O    0.82979   0.59543   0.74413   1.000
    O201    O    0.83030   0.83043   0.74439   1.000
    O202    O    0.68500   0.77159   0.74664   1.000
    O203    O    0.59576   0.74386   0.82984   1.000
    O204    O    0.59590   0.82987   0.83005   1.000
    O205    O    0.74398   0.59529   0.83017   1.000
    O206    O    0.82987   0.59549   0.83029   1.000
    O207    O    0.74432   0.83042   0.83051   1.000
    O208    O    0.83028   0.74432   0.83052   1.000
    O209    O    0.59137   0.65263   0.87760   1.000
    O210    O    0.59164   0.87774   0.87800   1.000
    O211    O    0.65292   0.59091   0.87783   1.000
    O212    O    0.87771   0.59130   0.87816   1.000
    O213    O    0.65319   0.87802   0.87819   1.000
    O214    O    0.87792   0.65302   0.87825   1.000
    O215    O    0.58240   0.58211   0.91753   1.000
    O216    O    0.58261   0.91762   0.91778   1.000
    O217    O    0.91757   0.58242   0.91787   1.000
    O218    O    0.50744   0.57293   0.95967   1.000
    O219    O    0.57297   0.50713   0.95990   1.000
    O220    O    0.50760   0.95964   0.95972   1.000
    O221    O    0.57303   0.96002   0.96008   1.000
    O222    O    0.95963   0.50736   0.95991   1.000
    O223    O    0.95994   0.57304   0.96000   1.000
    O224    O    0.44695   0.96206   0.96218   1.000
    O225    O    0.44673   0.62839   0.96223   1.000
    O226    O    0.96213   0.44649   0.96257   1.000
    O227    O    0.62816   0.44617   0.96288   1.000
    O228    O    0.96299   0.62836   0.96286   1.000
    O229    O    0.62814   0.96313   0.96317   1.000
    O230    O    0.77167   0.68475   0.74675   1.000
    O231    O    0.22830   0.22825   0.31532   1.000
    O232    O    0.22813   0.22813   0.22811   1.000
loop_
    _geom_bond_atom_site_label_1
    _geom_bond_atom_site_label_2
    _geom_bond_distance
    _geom_bond_site_symmetry_2
    _ccdc_geom_bond_type
    C45    O106      0.54431      .   S
    C21    O106      0.54431      .   S
    C45    O107      0.70108      .   S
    C70    O107      0.70108      .   S
    C45    O108      0.69507  1_544   S
    C42    O108      0.69507      .   S
    C50    O109      0.54430      .   S
    C26    O109      0.54430      .   S
    C50    O110      0.70157      .   S
    C72    O110      0.70157      .   S
    C50    O111      0.69506  1_554   S
    C38    O111      0.69506      .   S
    C52    O112      0.54484      .   S
    C28    O112      0.54484      .   S
    C52    O113      0.70160      .   S
    C76    O113      0.70160      .   S
    C52    O114      0.69501  1_454   S
    C35    O114      0.69501      .   S
    C54    O115      0.54431      .   S
    C30    O115      0.54431      .   S
    C54    O116      0.70165      .   S
    C76    O116      0.70165      .   S
    C54    O117      0.69520      .   S
    C33    O117      0.69520  1_656   S
    C47    O118      0.54483      .   S
    C23    O118      0.54483      .   S
    C47    O119      0.70166      .   S
    C70    O119      0.70166      .   S
    C47    O120      0.69463      .   S
    C40    O120      0.69463  1_566   S
    C48    O121      0.54429      .   S
    C24    O121      0.54429      .   S
    C48    O122      0.70161      .   S
    C72    O122      0.70161      .   S
    C48    O123      0.69506      .   S
    C36    O123      0.69506  1_556   S
    C70    O124      0.74839      .   S
    C71    O124      0.74839      .   S
    C76    O125      0.74755      .   S
    C77    O125      0.74755      .   S
    C72    O126      0.74767      .   S
    C73    O126      0.74767      .   S
    C77    O127      0.63858      .   S
    C102   O127      0.63858      .   S
    C77    O128      0.63898      .   S
    C104   O128      0.63898      .   S
    C71    O129      0.63865      .   S
    C95    O129      0.63865      .   S
    C71    O130      0.63855      .   S
    C97    O130      0.63855      .   S
    C73    O131      0.63858      .   S
    C100   O131      0.63858      .   S
    C73    O132      0.63855      .   S
    C98    O132      0.63855      .   S
    C102   O133      0.98639      .   S
    C5     O133      0.98639      .   S
    C95    O134      0.98655      .   S
    C5     O134      0.98655      .   S
    C104   O135      0.98592      .   S
    C6     O135      0.98592      .   S
    C97    O136      0.98571      .   S
    C7     O136      0.98571      .   S
    C100   O137      0.98594      .   S
    C6     O137      0.98594      .   S
    C98    O138      0.98564      .   S
    C7     O138      0.98564      .   S
    C5     O139      0.98641      .   S
    C101   O139      0.98641      .   S
    C6     O140      0.98355      .   S
    C81    O140      0.98355      .   S
    C6     O141      0.98586      .   S
    C96    O141      0.98586      .   S
    C7     O142      0.98327      .   S
    C81    O142      0.98327      .   S
    C7     O143      0.98564      .   S
    C103   O143      0.98564      .   S
    C101   O144      0.63890      .   S
    C75    O144      0.63890      .   S
    C96    O145      0.63859      .   S
    C69    O145      0.63859      .   S
    C103   O146      0.63791      .   S
    C79    O146      0.63791      .   S
    C29    O147      0.54428      .   S
    C53    O147      0.54428      .   S
    C22    O148      0.54434      .   S
    C46    O148      0.54434      .   S
    C27    O149      0.54433      .   S
    C51    O149      0.54433      .   S
    C4     O150      0.98609      .   S
    C99    O150      0.98609      .   S
    C4     O151      0.98596      .   S
    C94    O151      0.98596      .   S
    C4     O152      0.98604      .   S
    C105   O152      0.98604      .   S
    C75    O153      0.63860      .   S
    C99    O153      0.63860      .   S
    C75    O154      0.74793      .   S
    C74    O154      0.74793      .   S
    C69    O155      0.63857      .   S
    C94    O155      0.63857      .   S
    C69    O156      0.74762      .   S
    C68    O156      0.74762      .   S
    C79    O157      0.63869      .   S
    C105   O157      0.63869      .   S
    C79    O158      0.74827      .   S
    C78    O158      0.74827      .   S
    C53    O159      0.70162      .   S
    C78    O159      0.70162      .   S
    C53    O160      0.69507      .   S
    C32    O160      0.69507  1_565   S
    C46    O161      0.70159      .   S
    C68    O161      0.70159      .   S
    C46    O162      0.69510      .   S
    C43    O162      0.69510  1_655   S
    C51    O163      0.70157      .   S
    C74    O163      0.70157      .   S
    C51    O164      0.69522  1_445   S
    C37    O164      0.69522      .   S
    C8     O165      0.54430      .   S
    C32    O165      0.54430      .   S
    C19    O166      0.54429      .   S
    C43    O166      0.54429      .   S
    C13    O167      0.54425      .   S
    C37    O167      0.54425      .   S
    C74    O168      0.70167      .   S
    C49    O168      0.70167      .   S
    C68    O169      0.70169      .   S
    C44    O169      0.70169      .   S
    C78    O170      0.70154      .   S
    C55    O170      0.70154      .   S
    C32    O171      0.70161      .   S
    C56    O171      0.70161      .   S
    C43    O172      0.70162      .   S
    C66    O172      0.70162      .   S
    C37    O173      0.70167      .   S
    C62    O173      0.70167      .   S
    C49    O174      0.54434      .   S
    C25    O174      0.54434      .   S
    C49    O175      0.69521      .   S
    C39    O175      0.69521  1_665   S
    C44    O176      0.54429      .   S
    C20    O176      0.54429      .   S
    C44    O177      0.69484  1_455   S
    C41    O177      0.69484      .   S
    C55    O178      0.54430      .   S
    C31    O178      0.54430      .   S
    C55    O179      0.69507  1_545   S
    C34    O179      0.69507      .   S
    C56    O180      0.70162      .   S
    C34    O180      0.70162      .   S
    C56    O181      0.74769      .   S
    C57    O181      0.74769      .   S
    C66    O182      0.70157      .   S
    C41    O182      0.70157      .   S
    C66    O183      0.74776      .   S
    C67    O183      0.74776      .   S
    C62    O184      0.70165      .   S
    C39    O184      0.70165      .   S
    C62    O185      0.74793      .   S
    C63    O185      0.74793      .   S
    C82    O186      0.63860      .   S
    C57    O186      0.63860      .   S
    C82    O187      0.98604      .   S
    C0     O187      0.98604      .   S
    C93    O188      0.63858      .   S
    C67    O188      0.63858      .   S
    C93    O189      0.98596      .   S
    C0     O189      0.98596      .   S
    C87    O190      0.63860      .   S
    C63    O190      0.63860      .   S
    C87    O191      0.98608      .   S
    C0     O191      0.98608      .   S
    C41    O192      0.54463      .   S
    C17    O192      0.54463      .   S
    C39    O193      0.54425      .   S
    C15    O193      0.54425      .   S
    C34    O194      0.54428      .   S
    C10    O194      0.54428      .   S
    C57    O195      0.63855      .   S
    C84    O195      0.63855      .   S
    C67    O196      0.63852      .   S
    C91    O196      0.63852      .   S
    C63    O197      0.63865      .   S
    C89    O197      0.63865      .   S
    C0     O198      0.66200      .   S
    C80    O198      0.66200      .   S
    C84    O199      0.98556      .   S
    C2     O199      0.98556      .   S
    C91    O200      0.98586      .   S
    C3     O200      0.98586      .   S
    C89    O201      0.98646      .   S
    C1     O201      0.98646      .   S
    C80    O202      1.08527      .   S
    C2     O202      1.08527      .   S
    C2     O203      0.98563      .   S
    C88    O203      0.98563      .   S
    C2     O204      0.98572      .   S
    C92    O204      0.98572      .   S
    C3     O205      0.98594      .   S
    C86    O205      0.98594      .   S
    C3     O206      0.98595      .   S
    C85    O206      0.98595      .   S
    C1     O207      0.98662      .   S
    C90    O207      0.98662      .   S
    C1     O208      0.98647      .   S
    C83    O208      0.98647      .   S
    C88    O209      0.63855      .   S
    C61    O209      0.63855      .   S
    C92    O210      0.63856      .   S
    C65    O210      0.63856      .   S
    C86    O211      0.63858      .   S
    C61    O211      0.63858      .   S
    C85    O212      0.63862      .   S
    C59    O212      0.63862      .   S
    C90    O213      0.63865      .   S
    C65    O213      0.63865      .   S
    C83    O214      0.63863      .   S
    C59    O214      0.63863      .   S
    C61    O215      0.74767      .   S
    C60    O215      0.74767      .   S
    C65    O216      0.74792      .   S
    C64    O216      0.74792      .   S
    C59    O217      0.74786      .   S
    C58    O217      0.74786      .   S
    C60    O218      0.70161      .   S
    C38    O218      0.70161      .   S
    C60    O219      0.70157      .   S
    C36    O219      0.70157      .   S
    C64    O220      0.70166      .   S
    C42    O220      0.70166      .   S
    C64    O221      0.70159      .   S
    C40    O221      0.70159      .   S
    C58    O222      0.70165      .   S
    C35    O222      0.70165      .   S
    C58    O223      0.70138      .   S
    C33    O223      0.70138      .   S
    C18    O224      0.54428      .   S
    C42    O224      0.54428      .   S
    C14    O225      0.54429      .   S
    C38    O225      0.54429      .   S
    C11    O226      0.54432      .   S
    C35    O226      0.54432      .   S
    C12    O227      0.54430      .   S
    C36    O227      0.54430      .   S
    C9     O228      0.54432      .   S
    C33    O228      0.54432      .   S
    C16    O229      0.54431      .   S
    C40    O229      0.54431      .   S
    C80    O230      1.08576      .   S
    C3     O230      1.08576      .   S
    C81    O231      0.98364      .   S
    C4     O231      0.98364      .   S
    C81    O232      0.98427      .   S
    C5     O232      0.98427      .   S
