# CIF file generated by openbabel 2.4.90, see http://openbabel.sf.net
data_I
_chemical_name_common ''
_cell_length_a 18.445
_cell_length_b 18.422
_cell_length_c 18.413
_cell_angle_alpha 60.144
_cell_angle_beta 60.178
_cell_angle_gamma 60.191
_space_group_name_H-M_alt 'P 1'
_space_group_name_Hall 'P 1'
loop_
    _symmetry_equiv_pos_as_xyz
    x,y,z
loop_
    _atom_site_label
    _atom_site_type_symbol
    _atom_site_fract_x
    _atom_site_fract_y
    _atom_site_fract_z
    _atom_site_occupancy
    Zr0     Zr   0.79327   0.79348   0.61939   1.000
    Zr1     Zr   0.79361   0.79371   0.79380   1.000
    Zr2     Zr   0.61987   0.79318   0.79328   1.000
    Zr3     Zr   0.79320   0.61949   0.79350   1.000
    Zr4     Zr   0.20673   0.20651   0.38062   1.000
    Zr5     Zr   0.20639   0.20628   0.20620   1.000
    Zr6     Zr   0.20680   0.38049   0.20651   1.000
    Zr7     Zr   0.38013   0.20680   0.20673   1.000
    N8      N    0.50000   0.99999   0.50000   1.000
    O9      O    0.62202   0.91505   0.54761   1.000
    O10     O    0.54789   0.91492   0.62197   1.000
    O11     O    0.37799   0.08493   0.45240   1.000
    O12     O    0.45211   0.08507   0.37804   1.000
    N13     N    0.50000   0.49999   0.00000   1.000
    O14     O    0.37801   0.45235   0.08492   1.000
    O15     O    0.62199   0.54764   0.91509   1.000
    O16     O    0.54788   0.62193   0.91492   1.000
    O17     O    0.45212   0.37806   0.08507   1.000
    N18     N    0.50000   0.99999   1.00000   1.000
    O19     O    0.62216   0.91521   0.91525   1.000
    O20     O    0.45205   0.08506   0.08497   1.000
    O21     O    0.37784   0.08478   0.08474   1.000
    O22     O    0.54795   0.91493   0.91503   1.000
    N23     N    0.00000   0.99999   0.50000   1.000
    O24     O    0.91496   0.91513   0.54770   1.000
    O25     O    0.08504   0.08485   0.45230   1.000
    O26     O    0.91515   0.91521   0.62220   1.000
    O27     O    0.08485   0.08478   0.37780   1.000
    N28     N    0.00000   0.49999   0.99995   1.000
    O29     O    0.08486   0.37783   0.08472   1.000
    O30     O    0.91494   0.54774   0.91512   1.000
    O31     O    0.08506   0.45224   0.08484   1.000
    O32     O    0.91514   0.62216   0.91524   1.000
    N33     N    0.00000   0.49999   0.50000   1.000
    O34     O    0.08511   0.45227   0.37794   1.000
    O35     O    0.91489   0.54771   0.62207   1.000
    O36     O    0.91495   0.62206   0.54765   1.000
    O37     O    0.08505   0.37792   0.45235   1.000
    N38     N    0.24987   0.24999   0.25002   1.000
    O39     O    0.23910   0.28261   0.23914   1.000
    O40     O    0.28243   0.23919   0.23920   1.000
    O41     O    0.23908   0.23912   0.28267   1.000
    O42     O    0.23900   0.23906   0.23907   1.000
    N43     N    0.75013   0.75000   0.70000   1.000
    O44     O    0.76092   0.76087   0.67985   1.000
    O45     O    0.71757   0.76080   0.72332   1.000
    O46     O    0.76090   0.71737   0.72338   1.000
loop_
    _geom_bond_atom_site_label_1
    _geom_bond_atom_site_label_2
    _geom_bond_distance
    _geom_bond_site_symmetry_2
    _ccdc_geom_bond_type
    N8     O9        2.31885      .   S
    Zr0    O9        3.30347      .   S
    N8     O10       2.31785      .   S
    Zr2    O10       3.30213      .   S
    N8     O11       2.31881  1_565   S
    Zr4    O11       3.30343      .   S
    N8     O12       2.31775  1_565   S
    Zr7    O12       3.30211      .   S
    N13    O14       2.31863      .   S
    Zr6    O14       3.30314      .   S
    N13    O15       2.31863  1_554   S
    Zr3    O15       3.30314      .   S
    N13    O16       2.31786  1_554   S
    Zr2    O16       3.30220      .   S
    N13    O17       2.31786      .   S
    Zr7    O17       3.30221      .   S
    N18    O19       2.31994      .   S
    Zr1    O19       3.30512      .   S
    N18    O20       2.31795  1_566   S
    Zr7    O20       3.30248      .   S
    N18    O21       2.31999  1_566   S
    Zr5    O21       3.30511      .   S
    N18    O22       2.31782      .   S
    Zr2    O22       3.30237      .   S
    N23    O24       2.31862  1_455   S
    Zr0    O24       3.30346      .   S
    N23    O25       2.31864  1_565   S
    Zr4    O25       3.30347      .   S
    N23    O26       2.31955  1_455   S
    Zr1    O26       3.30469      .   S
    N23    O27       2.31960  1_565   S
    Zr5    O27       3.30469      .   S
    N28    O29       2.31972  1_556   S
    Zr5    O29       3.30479      .   S
    N28    O30       2.31791  1_455   S
    Zr3    O30       3.30261      .   S
    N28    O31       2.31874  1_556   S
    Zr6    O31       3.30341      .   S
    N28    O32       2.31921  1_455   S
    Zr1    O32       3.30433      .   S
    N33    O34       2.31827      .   S
    Zr6    O34       3.30282      .   S
    N33    O35       2.31831  1_455   S
    Zr3    O35       3.30286      .   S
    N33    O36       2.31860  1_455   S
    Zr0    O36       3.30323      .   S
    N33    O37       2.31857      .   S
    Zr4    O37       3.30320      .   S
    N38    O39       0.49177      .   S
    Zr6    O39       1.47532      .   S
    N38    O40       0.49163      .   S
    Zr7    O40       1.47490      .   S
    N38    O41       0.49182      .   S
    Zr4    O41       1.47547      .   S
    N38    O42       0.49213      .   S
    Zr5    O42       1.47640      .   S
    N43    O44       0.33100      .   S
    Zr0    O44       0.99300      .   S
    N43    O45       0.54263      .   S
    Zr2    O45       1.62790      .   S
    N43    O46       0.54288      .   S
    Zr3    O46       1.62864      .   S
