# CIF file generated by openbabel 2.4.90, see http://openbabel.sf.net
data_I
_chemical_name_common ''
_cell_length_a 8.75
_cell_length_b 12.597
_cell_length_c 12.598
_cell_angle_alpha 114.647
_cell_angle_beta 103.32
_cell_angle_gamma 103.37
_space_group_name_H-M_alt 'P 1'
_space_group_name_Hall 'P 1'
loop_
    _symmetry_equiv_pos_as_xyz
    x,y,z
loop_
    _atom_site_label
    _atom_site_type_symbol
    _atom_site_fract_x
    _atom_site_fract_y
    _atom_site_fract_z
    _atom_site_occupancy
    C0      C    0.97795   0.25442   0.77558   1.000
    C1      C    0.67831   0.39467   0.06986   1.000
    C2      C    0.72231   0.51965   0.74450   1.000
    C3      C    0.28301   0.67490   0.60544   1.000
    C4      C    0.20335   0.22484   0.48043   1.000
    C5      C    0.60914   0.93113   0.32474   1.000
    C6      C    0.02206   0.74557   0.22438   1.000
    C7      C    0.32170   0.60533   0.93011   1.000
    C8      C    0.27770   0.48035   0.25547   1.000
    C9      C    0.71701   0.32510   0.39453   1.000
    C10     C    0.79667   0.77517   0.51954   1.000
    C11     C    0.39088   0.06888   0.67523   1.000
    O12     O    0.89219   0.26736   0.68672   1.000
    O13     O    0.13478   0.27697   0.80851   1.000
    O14     O    0.55676   0.40889   0.00591   1.000
    O15     O    0.75151   0.47022   0.18834   1.000
    O16     O    0.62361   0.41811   0.73195   1.000
    O17     O    0.85649   0.52981   0.72163   1.000
    O18     O    0.14754   0.59661   0.59136   1.000
    O19     O    0.28042   0.71880   0.53022   1.000
    O20     O    0.20595   0.31346   0.58184   1.000
    O21     O    0.32710   0.19145   0.47033   1.000
    O22     O    0.55276   0.99509   0.40382   1.000
    O23     O    0.56130   0.81208   0.27988   1.000
    O24     O    0.10782   0.73264   0.31325   1.000
    O25     O    0.86523   0.72303   0.19146   1.000
    O26     O    0.44325   0.59111   0.99406   1.000
    O27     O    0.24850   0.52978   0.81163   1.000
    O28     O    0.37640   0.58190   0.26802   1.000
    O29     O    0.14352   0.47019   0.27834   1.000
    O30     O    0.85247   0.40339   0.40861   1.000
    O31     O    0.71960   0.28120   0.46975   1.000
    O32     O    0.79406   0.68654   0.41812   1.000
    O33     O    0.67291   0.80855   0.52964   1.000
    O34     O    0.44726   0.00491   0.59615   1.000
    O35     O    0.43871   0.18792   0.72010   1.000
loop_
    _geom_bond_atom_site_label_1
    _geom_bond_atom_site_label_2
    _geom_bond_distance
    _geom_bond_site_symmetry_2
    _ccdc_geom_bond_type
    O14    C1        1.27511      .   S
    C1     O15       1.27934      .   S
    O25    C6        1.26296  1_655   S
    C6     O24       1.29017      .   S
    C8     O28       1.29024      .   S
    C8     O29       1.26285      .   S
    O23    C5        1.27955      .   S
    C5     O22       1.27509      .   S
    C9     O30       1.27500      .   S
    C9     O31       1.27943      .   S
    O32    C10       1.29018      .   S
    O21    C4        1.26295      .   S
    C4     O20       1.29017      .   S
    C10    O33       1.26296      .   S
    O19    C3        1.27943      .   S
    O18    C3        1.27501      .   S
    O34    C11       1.27508      .   S
    C11    O35       1.27955      .   S
    O12    C0        1.29017      .   S
    O17    C2        1.26286      .   S
    O16    C2        1.29022      .   S
    C0     O13       1.26296  1_655   S
    O27    C7        1.27933      .   S
    C7     O26       1.27511      .   S
