# CIF file generated by openbabel 2.4.90, see http://openbabel.sf.net
data_I
_chemical_name_common ''
_cell_length_a 8.75
_cell_length_b 12.597
_cell_length_c 12.598
_cell_angle_alpha 114.647
_cell_angle_beta 103.32
_cell_angle_gamma 103.37
_space_group_name_H-M_alt 'P 1'
_space_group_name_Hall 'P 1'
loop_
    _symmetry_equiv_pos_as_xyz
    x,y,z
loop_
    _atom_site_label
    _atom_site_type_symbol
    _atom_site_fract_x
    _atom_site_fract_y
    _atom_site_fract_z
    _atom_site_occupancy
    Ca0     Ca   0.58699   0.19684   0.57411   1.000
    Ca1     Ca   0.38929   0.37600   0.80319   1.000
    Ca2     Ca   0.98713   0.57397   0.37649   1.000
    Ca3     Ca   0.41302   0.80317   0.42586   1.000
    Ca4     Ca   0.61072   0.62400   0.19678   1.000
    Ca5     Ca   0.01289   0.42603   0.62348   1.000
