# CIF file generated by openbabel 2.4.90, see http://openbabel.sf.net
data_I
_chemical_name_common ''
_cell_length_a 5.615
_cell_length_b 18.961
_cell_length_c 23.888
_cell_angle_alpha 89.932
_cell_angle_beta 89.873
_cell_angle_gamma 89.57
_space_group_name_H-M_alt 'P 1'
_space_group_name_Hall 'P 1'
loop_
    _symmetry_equiv_pos_as_xyz
    x,y,z
loop_
    _atom_site_label
    _atom_site_type_symbol
    _atom_site_fract_x
    _atom_site_fract_y
    _atom_site_fract_z
    _atom_site_occupancy
    C0      C    0.41980   0.68843   0.46082   1.000
    C1      C    0.91848   0.80863   0.46113   1.000
    C2      C    0.00000   0.30871   0.54175   1.000
    C3      C    0.42467   0.18843   0.54130   1.000
    C4      C    0.41874   0.80873   0.96018   1.000
    C5      C    0.92494   0.68844   0.96030   1.000
    C6      C    0.00000   0.18857   0.04196   1.000
    C7      C    0.42051   0.30886   0.00000   1.000
    C8      C    0.98985   0.54901   0.48349   1.000
    C9      C    0.04966   0.39164   0.35451   1.000
    C10     C    0.93418   0.60889   0.30912   1.000
    C11     C    0.00000   0.38983   0.19389   1.000
    C12     C    0.00000   0.44825   0.01926   1.000
    C13     C    0.05408   0.60601   0.14755   1.000
    C14     C    0.48855   0.44772   0.51902   1.000
    C15     C    0.54754   0.60493   0.64785   1.000
    C16     C    0.43004   0.38830   0.69345   1.000
    C17     C    0.43438   0.60790   0.80881   1.000
    C18     C    0.49365   0.54888   0.98331   1.000
    C19     C    0.54513   0.39065   0.85482   1.000
    C20     C    0.98944   0.94839   0.98329   1.000
    C21     C    0.05320   0.10615   0.85460   1.000
    C22     C    0.93113   0.88996   0.80886   1.000
    C23     C    0.00000   0.10880   0.69310   1.000
    C24     C    0.00000   0.04880   0.51884   1.000
    C25     C    0.04807   0.89137   0.64812   1.000
    C26     C    0.49195   0.04877   0.01911   1.000
    C27     C    0.54144   0.89042   0.14782   1.000
    C28     C    0.43618   0.10788   0.19362   1.000
    C29     C    0.43015   0.88827   0.30936   1.000
    C30     C    0.48906   0.94769   0.48361   1.000
    C31     C    0.55327   0.10467   0.35437   1.000
    C32     C    0.89782   0.65982   0.41511   1.000
    C33     C    0.96497   0.58707   0.39789   1.000
    C34     C    0.99784   0.53531   0.43927   1.000
    C35     C    0.02153   0.46461   0.42359   1.000
    C36     C    0.01107   0.40810   0.46704   1.000
    C37     C    0.03108   0.44670   0.36685   1.000
    C38     C    0.00974   0.49890   0.32556   1.000
    C39     C    0.96738   0.56924   0.34123   1.000
    C40     C    0.01085   0.49920   0.17697   1.000
    C41     C    0.00000   0.42905   0.16160   1.000
    C42     C    0.00000   0.41083   0.10502   1.000
    C43     C    0.00000   0.33832   0.08822   1.000
    C44     C    0.99874   0.46213   0.06342   1.000
    C45     C    0.02424   0.53276   0.07881   1.000
    C46     C    0.01550   0.58900   0.03512   1.000
    C47     C    0.03403   0.55099   0.13547   1.000
    C48     C    0.39684   0.33727   0.58745   1.000
    C49     C    0.46218   0.40986   0.60465   1.000
    C50     C    0.49584   0.46144   0.56322   1.000
    C51     C    0.51961   0.53203   0.57883   1.000
    C52     C    0.51043   0.58856   0.53535   1.000
    C53     C    0.52853   0.54995   0.63556   1.000
    C54     C    0.50607   0.49793   0.67690   1.000
    C55     C    0.46368   0.42777   0.66130   1.000
    C56     C    0.50706   0.49783   0.82553   1.000
    C57     C    0.46729   0.56836   0.84102   1.000
    C58     C    0.46717   0.58656   0.89761   1.000
    C59     C    0.40262   0.65961   0.91460   1.000
    C60     C    0.49968   0.53493   0.93913   1.000
    C61     C    0.52098   0.46409   0.92366   1.000
    C62     C    0.51074   0.40782   0.96734   1.000
    C63     C    0.52828   0.44582   0.86697   1.000
    C64     C    0.89571   0.83842   0.91450   1.000
    C65     C    0.96361   0.91097   0.89762   1.000
    C66     C    0.99788   0.00000   0.93909   1.000
    C67     C    0.02351   0.03290   0.92352   1.000
    C68     C    0.01538   0.08913   0.96713   1.000
    C69     C    0.03304   0.05113   0.86680   1.000
    C70     C    0.00956   0.00000   0.82544   1.000
    C71     C    0.96574   0.92918   0.84102   1.000
    C72     C    0.00934   0.99869   0.67686   1.000
    C73     C    0.00000   0.06909   0.66106   1.000
    C74     C    0.00000   0.08691   0.60437   1.000
    C75     C    0.00000   0.15978   0.58713   1.000
    C76     C    0.99924   0.03510   0.56308   1.000
    C77     C    0.02164   0.96435   0.57889   1.000
    C78     C    0.01093   0.90792   0.53549   1.000
    C79     C    0.03033   0.94644   0.63567   1.000
    C80     C    0.40286   0.15959   0.08779   1.000
    C81     C    0.46696   0.08648   0.10479   1.000
    C82     C    0.49810   0.03479   0.06331   1.000
    C83     C    0.51802   0.96391   0.07888   1.000
    C84     C    0.50633   0.90771   0.03530   1.000
    C85     C    0.52567   0.94562   0.13559   1.000
    C86     C    0.50656   0.99768   0.17697   1.000
    C87     C    0.46777   0.06829   0.16141   1.000
    C88     C    0.50855   0.00000   0.32560   1.000
    C89     C    0.46454   0.92769   0.34139   1.000
    C90     C    0.46254   0.90980   0.39808   1.000
    C91     C    0.39660   0.83726   0.41546   1.000
    C92     C    0.49704   0.96134   0.43937   1.000
    C93     C    0.52292   0.03189   0.42358   1.000
    C94     C    0.51511   0.08844   0.46697   1.000
    C95     C    0.53257   0.04976   0.36680   1.000
    C96     C    0.01643   0.47464   0.26958   1.000
    C97     C    0.01719   0.52363   0.23293   1.000
    C98     C    0.51298   0.52225   0.73287   1.000
    C99     C    0.51197   0.47332   0.76957   1.000
    C100    C    0.01619   0.02364   0.76940   1.000
    C101    C    0.01531   0.97453   0.73292   1.000
    C102    C    0.51187   0.97316   0.23296   1.000
    C103    C    0.51546   0.02210   0.26956   1.000
    C104    C    0.01268   0.68850   0.45702   1.000
    C105    C    0.72847   0.69145   0.39081   1.000
    C106    C    0.00000   0.42588   0.51864   1.000
    C107    C    0.01041   0.34357   0.45170   1.000
    C108    C    0.00000   0.30803   0.11280   1.000
    C109    C    0.01231   0.30865   0.04645   1.000
    C110    C    0.02041   0.65365   0.05009   1.000
    C111    C    0.99021   0.57101   0.98371   1.000
    C112    C    0.51301   0.30852   0.54539   1.000
    C113    C    0.22840   0.30584   0.61180   1.000
    C114    C    0.48973   0.57094   0.48375   1.000
    C115    C    0.51022   0.65309   0.55071   1.000
    C116    C    0.23273   0.69135   0.89050   1.000
    C117    C    0.51953   0.68856   0.95604   1.000
    C118    C    0.50985   0.34319   0.95226   1.000
    C119    C    0.49011   0.42593   0.00000   1.000
    C120    C    0.01114   0.80861   0.95616   1.000
    C121    C    0.72582   0.80813   0.89007   1.000
    C122    C    0.00000   0.07111   0.01862   1.000
    C123    C    0.02058   0.15378   0.95205   1.000
    C124    C    0.00000   0.19144   0.61125   1.000
    C125    C    0.01844   0.18860   0.54546   1.000
    C126    C    0.01009   0.84335   0.55086   1.000
    C127    C    0.98972   0.92581   0.48389   1.000
    C128    C    0.52035   0.18862   0.00000   1.000
    C129    C    0.23274   0.19131   0.11193   1.000
    C130    C    0.49010   0.92584   0.98367   1.000
    C131    C    0.50058   0.84312   0.05057   1.000
    C132    C    0.22887   0.80573   0.39112   1.000
    C133    C    0.51157   0.80851   0.45763   1.000
    C134    C    0.52012   0.15297   0.45158   1.000
    C135    C    0.49012   0.07086   0.51854   1.000
    O136    O    0.50043   0.41688   0.98367   1.000
    O137    O    0.46518   0.32603   0.97613   1.000
    O138    O    0.00000   0.12984   0.03029   1.000
    O139    O    0.00769   0.08012   0.99287   1.000
    O140    O    0.49503   0.04178   0.04121   1.000
    O141    O    0.99937   0.45519   0.04134   1.000
    O142    O    0.01796   0.62133   0.04261   1.000
    O143    O    0.01987   0.56088   0.05697   1.000
    O144    O    0.00285   0.58001   0.00942   1.000
    O145    O    0.50345   0.87541   0.04293   1.000
    O146    O    0.51217   0.93581   0.05709   1.000
    O147    O    0.49821   0.91677   0.00949   1.000
    O148    O    0.00616   0.24861   0.04420   1.000
    O149    O    0.11637   0.18994   0.07695   1.000
    O150    O    0.01029   0.17118   0.99701   1.000
    O151    O    0.00616   0.32349   0.06734   1.000
    O152    O    0.97268   0.67104   0.00520   1.000
    O153    O    0.45966   0.82592   0.00538   1.000
    O154    O    0.50806   0.99935   0.07110   1.000
    O155    O    0.48253   0.06063   0.08405   1.000
    O156    O    0.01149   0.49745   0.07112   1.000
    O157    O    0.99937   0.43648   0.08422   1.000
    O158    O    0.02914   0.54187   0.10714   1.000
    O159    O    0.52184   0.95476   0.10724   1.000
    O160    O    0.43491   0.12304   0.09629   1.000
    O161    O    0.31780   0.17545   0.09986   1.000
    O162    O    0.00000   0.37458   0.09662   1.000
    O163    O    0.00000   0.32318   0.10051   1.000
    O164    O    0.46737   0.07738   0.13310   1.000
    O165    O    0.00000   0.41994   0.13331   1.000
    O166    O    0.04406   0.57850   0.14151   1.000
    O167    O    0.02244   0.52510   0.15622   1.000
    O168    O    0.53355   0.91802   0.14170   1.000
    O169    O    0.51611   0.97165   0.15628   1.000
    O170    O    0.48717   0.03298   0.16919   1.000
    O171    O    0.45198   0.08808   0.17752   1.000
    O172    O    0.00543   0.46413   0.16929   1.000
    O173    O    0.00000   0.40944   0.17775   1.000
    O174    O    0.50921   0.98542   0.20496   1.000
    O175    O    0.01402   0.51142   0.20495   1.000
    O176    O    0.01681   0.49913   0.25125   1.000
    O177    O    0.51366   0.99763   0.25126   1.000
    O178    O    0.51200   0.01105   0.29758   1.000
    O179    O    0.01309   0.48677   0.29757   1.000
    O180    O    0.95078   0.58906   0.32518   1.000
    O181    O    0.44734   0.90798   0.32538   1.000
    O182    O    0.98856   0.53407   0.33340   1.000
    O183    O    0.02041   0.47280   0.34621   1.000
    O184    O    0.48654   0.96385   0.33349   1.000
    O185    O    0.52056   0.02488   0.34620   1.000
    O186    O    0.96618   0.57816   0.36956   1.000
    O187    O    0.46354   0.91875   0.36974   1.000
    O188    O    0.54292   0.07722   0.36059   1.000
    O189    O    0.04037   0.41917   0.36068   1.000
    O190    O    0.52774   0.04082   0.39519   1.000
    O191    O    0.02630   0.45566   0.39522   1.000
    O192    O    0.81315   0.67563   0.40296   1.000
    O193    O    0.57414   0.68994   0.42582   1.000
    O194    O    0.31274   0.82149   0.40329   1.000
    O195    O    0.07368   0.80718   0.42613   1.000
    O196    O    0.93140   0.62345   0.40650   1.000
    O197    O    0.98141   0.56119   0.41858   1.000
    O198    O    0.42957   0.87353   0.40677   1.000
    O199    O    0.47979   0.93557   0.41872   1.000
    O200    O    0.95525   0.67416   0.43606   1.000
    O201    O    0.45409   0.82288   0.43655   1.000
    O202    O    0.50998   0.99662   0.43147   1.000
    O203    O    0.51901   0.06017   0.44528   1.000
    O204    O    0.00969   0.49996   0.43143   1.000
    O205    O    0.01630   0.43636   0.44532   1.000
    O206    O    0.99385   0.54216   0.46138   1.000
    O207    O    0.49305   0.95451   0.46149   1.000
    O208    O    0.51761   0.12071   0.45927   1.000
    O209    O    0.47239   0.17070   0.49644   1.000
    O210    O    0.01074   0.37584   0.45937   1.000
    O211    O    0.00520   0.32614   0.49673   1.000
    O212    O    0.21624   0.68847   0.45892   1.000
    O213    O    0.71503   0.80857   0.45938   1.000
    O214    O    0.45477   0.62969   0.47229   1.000
    O215    O    0.46501   0.67076   0.50577   1.000
    O216    O    0.95410   0.86722   0.47251   1.000
    O217    O    0.96428   0.82599   0.50600   1.000
    O218    O    0.50261   0.07965   0.49275   1.000
    O219    O    0.00553   0.41699   0.49284   1.000
    O220    O    0.50008   0.57975   0.50955   1.000
    O221    O    0.00033   0.91687   0.50969   1.000
    O222    O    0.45739   0.12965   0.52992   1.000
    O223    O    0.00000   0.36730   0.53020   1.000
    O224    O    0.99962   0.04195   0.54096   1.000
    O225    O    0.49219   0.45458   0.54112   1.000
    O226    O    0.51033   0.62082   0.54303   1.000
    O227    O    0.51502   0.56030   0.55709   1.000
    O228    O    0.01051   0.87564   0.54318   1.000
    O229    O    0.01629   0.93614   0.55719   1.000
    O230    O    0.46884   0.24847   0.54335   1.000
    O231    O    0.00922   0.24866   0.54360   1.000
    O232    O    0.11420   0.30727   0.57678   1.000
    O233    O    0.45493   0.32289   0.56642   1.000
    O234    O    0.00922   0.17419   0.56629   1.000
    O235    O    0.01044   0.99973   0.57098   1.000
    O236    O    0.99962   0.06101   0.58373   1.000
    O237    O    0.50773   0.49673   0.57103   1.000
    O238    O    0.47901   0.43565   0.58394   1.000
    O239    O    0.52407   0.54099   0.60720   1.000
    O240    O    0.02599   0.95540   0.60728   1.000
    O241    O    0.00000   0.12335   0.59575   1.000
    O242    O    0.00000   0.17561   0.59919   1.000
    O243    O    0.42951   0.37356   0.59605   1.000
    O244    O    0.31262   0.32155   0.59962   1.000
    O245    O    0.00000   0.07800   0.63272   1.000
    O246    O    0.46293   0.41881   0.63298   1.000
    O247    O    0.53803   0.57744   0.64171   1.000
    O248    O    0.51730   0.52394   0.65623   1.000
    O249    O    0.03920   0.91890   0.64189   1.000
    O250    O    0.01983   0.97257   0.65626   1.000
    O251    O    0.00467   0.03389   0.66896   1.000
    O252    O    0.00000   0.08894   0.67708   1.000
    O253    O    0.48487   0.46285   0.66910   1.000
    O254    O    0.44686   0.40804   0.67738   1.000
    O255    O    0.01233   0.98661   0.70489   1.000
    O256    O    0.50953   0.51009   0.70489   1.000
    O257    O    0.51247   0.49779   0.75122   1.000
    O258    O    0.01575   0.99909   0.75116   1.000
    O259    O    0.01288   0.01182   0.79742   1.000
    O260    O    0.50951   0.48558   0.79755   1.000
    O261    O    0.45084   0.58813   0.82491   1.000
    O262    O    0.94843   0.90957   0.82494   1.000
    O263    O    0.98765   0.96459   0.83323   1.000
    O264    O    0.02130   0.02557   0.84612   1.000
    O265    O    0.48717   0.53310   0.83327   1.000
    O266    O    0.51767   0.47183   0.84625   1.000
    O267    O    0.96468   0.92008   0.86932   1.000
    O268    O    0.46723   0.57746   0.86932   1.000
    O269    O    0.04312   0.07864   0.86070   1.000
    O270    O    0.53670   0.41824   0.86090   1.000
    O271    O    0.02828   0.04202   0.89516   1.000
    O272    O    0.52463   0.45496   0.89531   1.000
    O273    O    0.81076   0.82328   0.90228   1.000
    O274    O    0.57228   0.80843   0.92512   1.000
    O275    O    0.31767   0.67548   0.90255   1.000
    O276    O    0.07884   0.68989   0.92540   1.000
    O277    O    0.43489   0.62308   0.90611   1.000
    O278    O    0.48342   0.56075   0.91837   1.000
    O279    O    0.92966   0.87470   0.90606   1.000
    O280    O    0.98075   0.95549   0.91836   1.000
    O281    O    0.95342   0.82351   0.93533   1.000
    O282    O    0.46108   0.67408   0.93532   1.000
    O283    O    0.01070   0.01645   0.93130   1.000
    O284    O    0.01944   0.06102   0.94532   1.000
    O285    O    0.51033   0.49951   0.93139   1.000
    O286    O    0.51586   0.43595   0.94550   1.000
    O287    O    0.99366   0.97420   0.96119   1.000
    O288    O    0.49667   0.54191   0.96122   1.000
    O289    O    0.01798   0.12146   0.95959   1.000
    O290    O    0.51030   0.37551   0.95980   1.000
    O291    O    0.72224   0.68850   0.95817   1.000
    O292    O    0.21494   0.80867   0.95817   1.000
    O293    O    0.45442   0.86728   0.97193   1.000
    O294    O    0.95758   0.62972   0.97201   1.000
    O295    O    0.96558   0.74857   0.45907   1.000
    O296    O    0.21641   0.30875   0.02322   1.000
    O297    O    0.00616   0.30834   0.07962   1.000
    O298    O    0.46914   0.74864   0.95811   1.000
    O299    O    0.45531   0.36739   0.00000   1.000
    O300    O    0.96804   0.74852   0.95823   1.000
    O301    O    0.22155   0.18852   0.54338   1.000
    O302    O    0.00922   0.19002   0.57835   1.000
    O303    O    0.47043   0.24874   0.00000   1.000
    O304    O    0.46569   0.74847   0.45923   1.000
loop_
    _geom_bond_atom_site_label_1
    _geom_bond_atom_site_label_2
    _geom_bond_distance
    _geom_bond_site_symmetry_2
    _ccdc_geom_bond_type
    C119   O136      0.43004  1_554   S
    C62    O136      0.43004      .   S
    C7     O137      0.70301  1_554   S
    C118   O137      0.70301      .   S
    C122   O138      1.14831      .   S
    C6     O138      1.14831      .   S
    C122   O139      0.63955  1_554   S
    C68    O139      0.63955      .   S
    C26    O140      0.54446      .   S
    C82    O140      0.54446      .   S
    C12    O141      0.54377  1_455   S
    C44    O141      0.54377      .   S
    C46    O142      0.63891      .   S
    C110   O142      0.63891      .   S
    C46    O143      0.74596      .   S
    C45    O143      0.74596      .   S
    C46    O144      0.64175      .   S
    C111   O144      0.64175  1_656   S
    C84    O145      0.63903      .   S
    C131   O145      0.63903      .   S
    C84    O146      0.74628      .   S
    C83    O146      0.74628      .   S
    C84    O147      0.64157      .   S
    C130   O147      0.64157  1_556   S
    C6     O148      1.14050      .   S
    C109   O148      1.14050      .   S
    C6     O149      1.06247      .   S
    C129   O149      1.06247      .   S
    C6     O150      1.12496  1_554   S
    C123   O150      1.12496      .   S
    C109   O151      0.57398      .   S
    C43    O151      0.57398      .   S
    C110   O152      1.15320  1_455   S
    C5     O152      1.15320  1_556   S
    C131   O153      1.15222      .   S
    C4     O153      1.15222  1_556   S
    C82    O154      0.69892  1_545   S
    C83    O154      0.69892      .   S
    C82    O155      0.70207      .   S
    C81    O155      0.70207      .   S
    C44    O156      0.69876  1_655   S
    C45    O156      0.69876      .   S
    C44    O157      0.69491      .   S
    C42    O157      0.69491  1_455   S
    C45    O158      0.69932      .   S
    C47    O158      0.69932      .   S
    C83    O159      0.69929      .   S
    C85    O159      0.69929      .   S
    C80    O160      0.74299      .   S
    C81    O160      0.74299      .   S
    C80    O161      0.63175      .   S
    C129   O161      0.63175      .   S
    C43    O162      0.71633      .   S
    C42    O162      0.71633      .   S
    C43    O163      0.41041      .   S
    C108   O163      0.41041      .   S
    C81    O164      0.69778      .   S
    C87    O164      0.69778      .   S
    C42    O165      0.69765      .   S
    C41    O165      0.69765      .   S
    C47    O166      0.54467      .   S
    C13    O166      0.54467      .   S
    C47    O167      0.70056      .   S
    C40    O167      0.70056      .   S
    C85    O168      0.54467      .   S
    C27    O168      0.54467      .   S
    C85    O169      0.70056      .   S
    C86    O169      0.70056      .   S
    C87    O170      0.70229      .   S
    C86    O170      0.70229  1_565   S
    C87    O171      0.54443      .   S
    C28    O171      0.54443      .   S
    C41    O172      0.69113      .   S
    C40    O172      0.69113      .   S
    C41    O173      0.53543      .   S
    C11    O173      0.53543      .   S
    C86    O174      0.70782      .   S
    C102   O174      0.70782      .   S
    C40    O175      0.70783      .   S
    C97    O175      0.70783      .   S
    C97    O176      0.63788      .   S
    C96    O176      0.63788      .   S
    C102   O177      0.63804      .   S
    C103   O177      0.63804  1_545   S
    C103   O178      0.70130      .   S
    C88    O178      0.70130      .   S
    C96    O179      0.70759      .   S
    C38    O179      0.70759      .   S
    C10    O180      0.54444      .   S
    C39    O180      0.54444      .   S
    C29    O181      0.54444      .   S
    C89    O181      0.54444      .   S
    C38    O182      0.70200  1_455   S
    C39    O182      0.70200      .   S
    C38    O183      0.70060      .   S
    C37    O183      0.70060      .   S
    C88    O184      0.72227  1_545   S
    C89    O184      0.72227      .   S
    C88    O185      0.68594      .   S
    C95    O185      0.68594      .   S
    C39    O186      0.69775      .   S
    C33    O186      0.69775      .   S
    C89    O187      0.69785      .   S
    C90    O187      0.69785      .   S
    C31    O188      0.54469      .   S
    C95    O188      0.54469      .   S
    C9     O189      0.54466      .   S
    C37    O189      0.54466      .   S
    C95    O190      0.69933      .   S
    C93    O190      0.69933      .   S
    C37    O191      0.69924      .   S
    C35    O191      0.69924      .   S
    C105   O192      0.63127      .   S
    C32    O192      0.63127      .   S
    C105   O193      1.20343      .   S
    C0     O193      1.20343      .   S
    C132   O194      0.63130      .   S
    C91    O194      0.63130      .   S
    C132   O195      1.20659      .   S
    C1     O195      1.20659  1_655   S
    C33    O196      0.74274      .   S
    C32    O196      0.74274      .   S
    C33    O197      0.70184      .   S
    C34    O197      0.70184      .   S
    C90    O198      0.74283      .   S
    C91    O198      0.74283      .   S
    C90    O199      0.70198      .   S
    C92    O199      0.70198      .   S
    C32    O200      0.65640      .   S
    C104   O200      0.65640  1_455   S
    C91    O201      0.65665      .   S
    C133   O201      0.65665      .   S
    C93    O202      0.69891  1_545   S
    C92    O202      0.69891      .   S
    C93    O203      0.74625      .   S
    C94    O203      0.74625      .   S
    C35    O204      0.69878      .   S
    C34    O204      0.69878  1_655   S
    C35    O205      0.74611      .   S
    C36    O205      0.74611      .   S
    C34    O206      0.54440      .   S
    C8     O206      0.54440      .   S
    C92    O207      0.54440      .   S
    C30    O207      0.54440      .   S
    C134   O208      0.63878      .   S
    C94    O208      0.63878      .   S
    C134   O209      1.15387      .   S
    C3     O209      1.15387      .   S
    C107   O210      0.63886      .   S
    C36    O210      0.63886      .   S
    C107   O211      1.12523      .   S
    C2     O211      1.12523      .   S
    C104   O212      1.14400      .   S
    C0     O212      1.14400      .   S
    C133   O213      1.14327      .   S
    C1     O213      1.14327      .   S
    C0     O214      1.16214      .   S
    C114   O214      1.16214      .   S
    C0     O215      1.15262      .   S
    C115   O215      1.15262      .   S
    C1     O216      1.16288      .   S
    C127   O216      1.16288      .   S
    C1     O217      1.15175      .   S
    C126   O217      1.15175  1_455   S
    C94    O218      0.64173      .   S
    C135   O218      0.64173      .   S
    C36    O219      0.63980      .   S
    C106   O219      0.63980      .   S
    C114   O220      0.64166      .   S
    C52    O220      0.64166      .   S
    C127   O221      0.64175  1_655   S
    C78    O221      0.64175      .   S
    C135   O222      1.16077      .   S
    C3     O222      1.16077      .   S
    C106   O223      1.14432      .   S
    C2     O223      1.14432      .   S
    C24    O224      0.54402  1_455   S
    C76    O224      0.54402      .   S
    C14    O225      0.54441      .   S
    C50    O225      0.54441      .   S
    C52    O226      0.63883      .   S
    C115   O226      0.63883      .   S
    C52    O227      0.74620      .   S
    C51    O227      0.74620      .   S
    C78    O228      0.63891      .   S
    C126   O228      0.63891      .   S
    C78    O229      0.74618      .   S
    C77    O229      0.74618      .   S
    C3     O230      1.16813      .   S
    C112   O230      1.16813      .   S
    C2     O231      1.14025      .   S
    C125   O231      1.14025      .   S
    C2     O232      1.05545      .   S
    C113   O232      1.05545      .   S
    C112   O233      0.65668      .   S
    C48    O233      0.65668      .   S
    C125   O234      0.56998      .   S
    C75    O234      0.56998      .   S
    C76    O235      0.69901  1_645   S
    C77    O235      0.69901      .   S
    C76    O236      0.69647      .   S
    C74    O236      0.69647  1_455   S
    C50    O237      0.69867      .   S
    C51    O237      0.69867      .   S
    C50    O238      0.70198      .   S
    C49    O238      0.70198      .   S
    C51    O239      0.69929      .   S
    C53    O239      0.69929      .   S
    C77    O240      0.69934      .   S
    C79    O240      0.69934      .   S
    C75    O241      0.72070      .   S
    C74    O241      0.72070      .   S
    C75    O242      0.41620      .   S
    C124   O242      0.41620      .   S
    C48    O243      0.74290      .   S
    C49    O243      0.74290      .   S
    C48    O244      0.63111      .   S
    C113   O244      0.63111      .   S
    C74    O245      0.69762      .   S
    C73    O245      0.69762      .   S
    C49    O246      0.69782      .   S
    C55    O246      0.69782      .   S
    C53    O247      0.54467      .   S
    C15    O247      0.54467      .   S
    C53    O248      0.70057      .   S
    C54    O248      0.70057      .   S
    C79    O249      0.54468      .   S
    C25    O249      0.54468      .   S
    C79    O250      0.70066      .   S
    C72    O250      0.70066      .   S
    C73    O251      0.69368      .   S
    C72    O251      0.69368  1_565   S
    C73    O252      0.53719      .   S
    C23    O252      0.53719      .   S
    C55    O253      0.70208      .   S
    C54    O253      0.70208      .   S
    C55    O254      0.54444      .   S
    C16    O254      0.54444      .   S
    C72    O255      0.70759      .   S
    C101   O255      0.70759      .   S
    C54    O256      0.70776      .   S
    C98    O256      0.70776      .   S
    C98    O257      0.63787      .   S
    C99    O257      0.63787      .   S
    C101   O258      0.63811      .   S
    C100   O258      0.63811  1_545   S
    C100   O259      0.70578      .   S
    C70    O259      0.70578      .   S
    C99    O260      0.70787      .   S
    C56    O260      0.70787      .   S
    C17    O261      0.54444      .   S
    C57    O261      0.54444      .   S
    C22    O262      0.54438      .   S
    C71    O262      0.54438      .   S
    C70    O263      0.70806  1_445   S
    C71    O263      0.70806      .   S
    C70    O264      0.69620      .   S
    C69    O264      0.69620      .   S
    C56    O265      0.70204      .   S
    C57    O265      0.70204      .   S
    C56    O266      0.70057      .   S
    C63    O266      0.70057      .   S
    C71    O267      0.69760      .   S
    C65    O267      0.69760      .   S
    C57    O268      0.69780      .   S
    C58    O268      0.69780      .   S
    C21    O269      0.54469      .   S
    C69    O269      0.54469      .   S
    C19    O270      0.54468      .   S
    C63    O270      0.54468      .   S
    C69    O271      0.69940      .   S
    C67    O271      0.69940      .   S
    C63    O272      0.69930      .   S
    C61    O272      0.69930      .   S
    C121   O273      0.63085      .   S
    C64    O273      0.63085      .   S
    C121   O274      1.20059      .   S
    C4     O274      1.20059      .   S
    C116   O275      0.63178      .   S
    C59    O275      0.63178      .   S
    C116   O276      1.19988      .   S
    C5     O276      1.19988  1_655   S
    C58    O277      0.74294      .   S
    C59    O277      0.74294      .   S
    C58    O278      0.70191      .   S
    C60    O278      0.70191      .   S
    C65    O279      0.74272      .   S
    C64    O279      0.74272      .   S
    C65    O280      0.98454      .   S
    C66    O280      0.98454  1_545   S
    C64    O281      0.65686      .   S
    C120   O281      0.65686  1_455   S
    C59    O282      0.65609      .   S
    C117   O282      0.65609      .   S
    C67    O283      0.37041      .   S
    C66    O283      0.37041  1_655   S
    C67    O284      0.74599      .   S
    C68    O284      0.74599      .   S
    C61    O285      0.69890      .   S
    C60    O285      0.69890      .   S
    C61    O286      0.74634      .   S
    C62    O286      0.74634      .   S
    C66    O287      0.71982  1_545   S
    C20    O287      0.71982      .   S
    C60    O288      0.54441      .   S
    C18    O288      0.54441      .   S
    C123   O289      0.63888      .   S
    C68    O289      0.63888      .   S
    C118   O290      0.63886      .   S
    C62    O290      0.63886      .   S
    C117   O291      1.13942      .   S
    C5     O291      1.13942      .   S
    C120   O292      1.14546      .   S
    C4     O292      1.14546      .   S
    C4     O293      1.16439      .   S
    C130   O293      1.16439      .   S
    C5     O294      1.16080      .   S
    C111   O294      1.16080      .   S
    C104   O295      1.16833  1_455   S
    C1     O295      1.16833      .   S
    C109   O296      1.27213      .   S
    C7     O296      1.27213      .   S
    C109   O297      0.79323      .   S
    C108   O297      0.79323      .   S
    C117   O298      1.17291      .   S
    C4     O298      1.17291      .   S
    C119   O299      1.12840      .   S
    C7     O299      1.12840      .   S
    C120   O300      1.16747  1_455   S
    C5     O300      1.16747      .   S
    C125   O301      1.14144      .   S
    C3     O301      1.14144      .   S
    C125   O302      0.78785      .   S
    C124   O302      0.78785      .   S
    C128   O303      1.17183      .   S
    C7     O303      1.17183      .   S
    C133   O304      1.16964      .   S
    C0     O304      1.16964      .   S
