# CIF file generated by openbabel 2.4.90, see http://openbabel.sf.net
data_I
_chemical_name_common 'VESTA_phase_1'
_cell_length_a 13
_cell_length_b 18.343
_cell_length_c 18.751
_cell_angle_alpha 90.178
_cell_angle_beta 96.467
_cell_angle_gamma 90.123
_space_group_name_H-M_alt 'P 1'
_space_group_name_Hall 'P 1'
loop_
    _symmetry_equiv_pos_as_xyz
    x,y,z
loop_
    _atom_site_label
    _atom_site_type_symbol
    _atom_site_fract_x
    _atom_site_fract_y
    _atom_site_fract_z
    _atom_site_occupancy
    Zn0     Zn   0.12458   0.51241   0.28080   1.000
    Zn1     Zn   0.62614   0.51256   0.28138   1.000
    Zn2     Zn   0.12437   0.01231   0.21910   1.000
    Zn3     Zn   0.62232   0.01240   0.21932   1.000
    Zn4     Zn   0.37325   0.48761   0.71927   1.000
    Zn5     Zn   0.87546   0.48755   0.72142   1.000
    Zn6     Zn   0.37335   0.98737   0.78093   1.000
    Zn7     Zn   0.87555   0.98767   0.78070   1.000
    H8      H    0.32861   0.71904   0.27094   1.000
    H9      H    0.82858   0.72039   0.27268   1.000
    H10     H    0.22807   0.77057   0.30331   1.000
    H11     H    0.72721   0.77134   0.30457   1.000
    H12     H    0.32942   0.68786   0.14862   1.000
    H13     H    0.83038   0.68874   0.15034   1.000
    H14     H    0.25626   0.70096   0.02128   1.000
    H15     H    0.75763   0.70102   0.02285   1.000
    H16     H    0.07942   0.75465   0.99189   1.000
    H17     H    0.58037   0.75383   0.99283   1.000
    H18     H    0.48076   0.79417   0.09120   1.000
    H19     H    0.98068   0.79503   0.09071   1.000
    H20     H    0.45297   0.79190   0.21298   1.000
    H21     H    0.95325   0.79194   0.21261   1.000
    H22     H    0.04546   0.75671   0.28121   1.000
    H23     H    0.54492   0.75680   0.28186   1.000
    H24     H    0.40914   0.45651   0.24225   1.000
    H25     H    0.90755   0.45713   0.24102   1.000
    H26     H    0.27745   0.45225   0.13812   1.000
    H27     H    0.77641   0.45287   0.13670   1.000
    H28     H    0.47887   0.59039   0.02665   1.000
    H29     H    0.97864   0.59061   0.02552   1.000
    H30     H    0.10285   0.58938   0.13711   1.000
    H31     H    0.60352   0.58925   0.13809   1.000
    H32     H    0.31820   0.55127   0.96142   1.000
    H33     H    0.81785   0.55170   0.95993   1.000
    H34     H    0.47816   0.61199   0.34576   1.000
    H35     H    0.97874   0.61197   0.34657   1.000
    H36     H    0.33475   0.60109   0.42175   1.000
    H37     H    0.83624   0.60119   0.42335   1.000
    H38     H    0.42820   0.37711   0.46183   1.000
    H39     H    0.92783   0.37653   0.46136   1.000
    H40     H    0.06393   0.39596   0.37949   1.000
    H41     H    0.56540   0.39667   0.38080   1.000
    H42     H    0.29389   0.42566   0.52690   1.000
    H43     H    0.79456   0.42545   0.52764   1.000
    H44     H    0.42107   0.21934   0.22958   1.000
    H45     H    0.92024   0.21803   0.22997   1.000
    H46     H    0.01996   0.27013   0.19712   1.000
    H47     H    0.52171   0.27065   0.19689   1.000
    H48     H    0.42118   0.18833   0.35181   1.000
    H49     H    0.92055   0.18810   0.35239   1.000
    H50     H    0.49526   0.20187   0.47900   1.000
    H51     H    0.99498   0.20226   0.47946   1.000
    H52     H    0.17206   0.25659   0.50798   1.000
    H53     H    0.67236   0.25611   0.50801   1.000
    H54     H    0.26973   0.29650   0.40856   1.000
    H55     H    0.77028   0.29656   0.40895   1.000
    H56     H    0.29587   0.29259   0.28640   1.000
    H57     H    0.79686   0.29288   0.28671   1.000
    H58     H    0.20288   0.25687   0.21819   1.000
    H59     H    0.70347   0.25834   0.21813   1.000
    H60     H    0.34151   0.95691   0.25790   1.000
    H61     H    0.83961   0.95711   0.25800   1.000
    H62     H    0.47280   0.95216   0.36227   1.000
    H63     H    0.97122   0.95254   0.36208   1.000
    H64     H    0.27212   0.08985   0.47483   1.000
    H65     H    0.77123   0.09085   0.47460   1.000
    H66     H    0.14774   0.08913   0.36332   1.000
    H67     H    0.64657   0.08998   0.36328   1.000
    H68     H    0.43204   0.05053   0.53999   1.000
    H69     H    0.93096   0.05131   0.53976   1.000
    H70     H    0.27009   0.11227   0.15381   1.000
    H71     H    0.76862   0.11181   0.15411   1.000
    H72     H    0.41301   0.10175   0.07731   1.000
    H73     H    0.91210   0.10078   0.07810   1.000
    H74     H    0.32179   0.87664   0.03850   1.000
    H75     H    0.81982   0.87584   0.03931   1.000
    H76     H    0.18508   0.89588   0.12002   1.000
    H77     H    0.68276   0.89558   0.12039   1.000
    H78     H    0.45499   0.92580   0.97263   1.000
    H79     H    0.95370   0.92467   0.97366   1.000
    H80     H    0.16960   0.28107   0.72931   1.000
    H81     H    0.67105   0.28071   0.72895   1.000
    H82     H    0.26957   0.22945   0.69635   1.000
    H83     H    0.77170   0.22924   0.69664   1.000
    H84     H    0.17017   0.31232   0.85169   1.000
    H85     H    0.66987   0.31156   0.85134   1.000
    H86     H    0.24450   0.29920   0.97878   1.000
    H87     H    0.74290   0.29844   0.97800   1.000
    H88     H    0.42129   0.24518   0.00000   1.000
    H89     H    0.91989   0.24497   0.00000   1.000
    H90     H    0.01892   0.20492   0.90939   1.000
    H91     H    0.51870   0.20437   0.90802   1.000
    H92     H    0.04648   0.20809   0.78753   1.000
    H93     H    0.54483   0.20747   0.78564   1.000
    H94     H    0.45137   0.24160   0.71729   1.000
    H95     H    0.95430   0.24333   0.71891   1.000
    H96     H    0.09142   0.54307   0.76050   1.000
    H97     H    0.58985   0.54396   0.75897   1.000
    H98     H    0.22288   0.54749   0.86465   1.000
    H99     H    0.72153   0.54840   0.86308   1.000
    H100    H    0.02163   0.40906   0.97600   1.000
    H101    H    0.52079   0.40962   0.97441   1.000
    H102    H    0.39609   0.41066   0.86308   1.000
    H103    H    0.89704   0.41015   0.86457   1.000
    H104    H    0.18207   0.44831   0.04142   1.000
    H105    H    0.68120   0.44899   0.03976   1.000
    H106    H    0.02158   0.38791   0.65522   1.000
    H107    H    0.52090   0.38820   0.65519   1.000
    H108    H    0.16344   0.39869   0.57793   1.000
    H109    H    0.66457   0.39906   0.57937   1.000
    H110    H    0.07163   0.62334   0.54020   1.000
    H111    H    0.57130   0.62306   0.53916   1.000
    H112    H    0.43400   0.60360   0.62011   1.000
    H113    H    0.93589   0.60381   0.62229   1.000
    H114    H    0.20480   0.57455   0.47375   1.000
    H115    H    0.70581   0.57439   0.47423   1.000
    H116    H    0.07803   0.78148   0.77080   1.000
    H117    H    0.57758   0.78144   0.77053   1.000
    H118    H    0.47724   0.72963   0.80296   1.000
    H119    H    0.97785   0.72971   0.80356   1.000
    H120    H    0.07813   0.81145   0.64835   1.000
    H121    H    0.57821   0.81167   0.64822   1.000
    H122    H    0.00408   0.79722   0.52121   1.000
    H123    H    0.50457   0.79788   0.52095   1.000
    H124    H    0.32740   0.74384   0.49174   1.000
    H125    H    0.82701   0.74287   0.49246   1.000
    H126    H    0.22893   0.70383   0.59069   1.000
    H127    H    0.72904   0.70303   0.59172   1.000
    H128    H    0.20196   0.70728   0.71263   1.000
    H129    H    0.70266   0.70648   0.71370   1.000
    H130    H    0.29436   0.74313   0.78116   1.000
    H131    H    0.79505   0.74286   0.78204   1.000
    H132    H    0.15595   0.04203   0.74169   1.000
    H133    H    0.65848   0.04262   0.74134   1.000
    H134    H    0.02545   0.04686   0.63711   1.000
    H135    H    0.52724   0.04670   0.63711   1.000
    H136    H    0.22716   0.90939   0.52509   1.000
    H137    H    0.72889   0.90938   0.52491   1.000
    H138    H    0.35090   0.91022   0.63693   1.000
    H139    H    0.85309   0.91063   0.63649   1.000
    H140    H    0.06711   0.94858   0.45940   1.000
    H141    H    0.56863   0.94829   0.45947   1.000
    H142    H    0.22743   0.88734   0.84633   1.000
    H143    H    0.72877   0.88830   0.84558   1.000
    H144    H    0.08463   0.89795   0.92290   1.000
    H145    H    0.58540   0.89921   0.92165   1.000
    H146    H    0.17594   0.12307   0.96151   1.000
    H147    H    0.67781   0.12406   0.96082   1.000
    H148    H    0.31258   0.10372   0.87994   1.000
    H149    H    0.81475   0.10447   0.87960   1.000
    H150    H    0.04268   0.07404   0.02739   1.000
    H151    H    0.54390   0.07517   0.02640   1.000
    C152    C    0.20452   0.65456   0.30244   1.000
    C153    C    0.70501   0.65516   0.30371   1.000
    C154    C    0.24399   0.72431   0.26903   1.000
    C155    C    0.74384   0.72518   0.27040   1.000
    C156    C    0.19800   0.73491   0.19203   1.000
    C157    C    0.69832   0.73542   0.19327   1.000
    C158    C    0.25305   0.71217   0.13572   1.000
    C159    C    0.75385   0.71271   0.13719   1.000
    C160    C    0.21184   0.71912   0.06403   1.000
    C161    C    0.71285   0.71917   0.06541   1.000
    C162    C    0.11324   0.74906   0.04756   1.000
    C163    C    0.61401   0.74862   0.04858   1.000
    C164    C    0.05761   0.77156   0.10315   1.000
    C165    C    0.55789   0.77108   0.10393   1.000
    C166    C    0.09817   0.76491   0.17540   1.000
    C167    C    0.59827   0.76493   0.17626   1.000
    C168    C    0.03581   0.79167   0.23361   1.000
    C169    C    0.53542   0.79170   0.23421   1.000
    C170    C    0.06397   0.87018   0.25784   1.000
    C171    C    0.56368   0.87020   0.25830   1.000
    C172    C    0.42232   0.48498   0.19318   1.000
    C173    C    0.92109   0.48550   0.19196   1.000
    C174    C    0.34857   0.48286   0.13404   1.000
    C175    C    0.84758   0.48339   0.13266   1.000
    C176    C    0.36715   0.52012   0.07119   1.000
    C177    C    0.86644   0.52053   0.06980   1.000
    C178    C    0.46057   0.55959   0.07326   1.000
    C179    C    0.96001   0.55987   0.07209   1.000
    C180    C    0.02993   0.55942   0.13382   1.000
    C181    C    0.53070   0.55918   0.13480   1.000
    C182    C    0.29510   0.51887   0.00581   1.000
    C183    C    0.79450   0.51936   0.00429   1.000
    C184    C    0.46271   0.56062   0.37153   1.000
    C185    C    0.96292   0.56046   0.37197   1.000
    C186    C    0.38371   0.55416   0.41468   1.000
    C187    C    0.88454   0.55407   0.41563   1.000
    C188    C    0.36786   0.48731   0.44868   1.000
    C189    C    0.86841   0.48706   0.44924   1.000
    C190    C    0.43538   0.42993   0.43638   1.000
    C191    C    0.93517   0.42946   0.43618   1.000
    C192    C    0.51227   0.44017   0.39169   1.000
    C193    C    0.00000   0.43962   0.39098   1.000
    C194    C    0.28781   0.47622   0.49600   1.000
    C195    C    0.78858   0.47603   0.49675   1.000
    C196    C    0.04443   0.15430   0.19773   1.000
    C197    C    0.54464   0.15461   0.19778   1.000
    C198    C    0.00476   0.22391   0.23144   1.000
    C199    C    0.50569   0.22461   0.23119   1.000
    C200    C    0.05150   0.23512   0.30828   1.000
    C201    C    0.55227   0.23564   0.30810   1.000
    C202    C    0.49764   0.21286   0.36455   1.000
    C203    C    0.99703   0.21266   0.36491   1.000
    C204    C    0.03896   0.22020   0.43645   1.000
    C205    C    0.53939   0.22006   0.43616   1.000
    C206    C    0.13768   0.25050   0.45244   1.000
    C207    C    0.63810   0.25029   0.45241   1.000
    C208    C    0.19273   0.27271   0.39652   1.000
    C209    C    0.69329   0.27282   0.39668   1.000
    C210    C    0.15143   0.26549   0.32442   1.000
    C211    C    0.65218   0.26597   0.32450   1.000
    C212    C    0.21313   0.29207   0.26585   1.000
    C213    C    0.71411   0.29296   0.26618   1.000
    C214    C    0.18496   0.37041   0.24187   1.000
    C215    C    0.68679   0.37169   0.24322   1.000
    C216    C    0.32831   0.98516   0.30731   1.000
    C217    C    0.82667   0.98559   0.30727   1.000
    C218    C    0.40191   0.98278   0.36655   1.000
    C219    C    0.90045   0.98329   0.36641   1.000
    C220    C    0.38352   0.01975   0.42980   1.000
    C221    C    0.88231   0.02045   0.42962   1.000
    C222    C    0.29035   0.05924   0.42794   1.000
    C223    C    0.78927   0.06008   0.42775   1.000
    C224    C    0.22035   0.05906   0.36626   1.000
    C225    C    0.71910   0.05982   0.36616   1.000
    C226    C    0.45537   0.01836   0.49534   1.000
    C227    C    0.95416   0.01901   0.49515   1.000
    C228    C    0.28605   0.06076   0.12828   1.000
    C229    C    0.78455   0.06021   0.12874   1.000
    C230    C    0.36471   0.05448   0.08483   1.000
    C231    C    0.86348   0.05365   0.08555   1.000
    C232    C    0.38101   0.98744   0.05106   1.000
    C233    C    0.87960   0.98652   0.05190   1.000
    C234    C    0.31421   0.92964   0.06380   1.000
    C235    C    0.81241   0.92891   0.06450   1.000
    C236    C    0.23765   0.93969   0.10878   1.000
    C237    C    0.73561   0.93924   0.10924   1.000
    C238    C    0.46099   0.97650   0.00365   1.000
    C239    C    0.95972   0.97538   0.00466   1.000
    C240    C    0.29366   0.34544   0.69752   1.000
    C241    C    0.79529   0.34528   0.69773   1.000
    C242    C    0.25415   0.27566   0.73080   1.000
    C243    C    0.75570   0.27544   0.73095   1.000
    C244    C    0.30082   0.26489   0.80765   1.000
    C245    C    0.80152   0.26479   0.80798   1.000
    C246    C    0.24650   0.28785   0.86425   1.000
    C247    C    0.74630   0.28735   0.86426   1.000
    C248    C    0.28837   0.28089   0.93580   1.000
    C249    C    0.78745   0.28040   0.93597   1.000
    C250    C    0.38695   0.25077   0.95182   1.000
    C251    C    0.88612   0.25060   0.95250   1.000
    C252    C    0.44183   0.22804   0.89593   1.000
    C253    C    0.94193   0.22829   0.89690   1.000
    C254    C    0.40055   0.23462   0.82382   1.000
    C255    C    0.90143   0.23493   0.82466   1.000
    C256    C    0.46200   0.20730   0.76532   1.000
    C257    C    0.96395   0.20832   0.76648   1.000
    C258    C    0.43408   0.12839   0.74241   1.000
    C259    C    0.93594   0.12983   0.74214   1.000
    C260    C    0.07823   0.51459   0.80960   1.000
    C261    C    0.57678   0.51538   0.80801   1.000
    C262    C    0.15189   0.51676   0.86878   1.000
    C263    C    0.65058   0.51759   0.86715   1.000
    C264    C    0.13326   0.47944   0.93161   1.000
    C265    C    0.63229   0.48017   0.92999   1.000
    C266    C    0.03991   0.43987   0.92945   1.000
    C267    C    0.53898   0.44053   0.92784   1.000
    C268    C    0.46878   0.44088   0.86625   1.000
    C269    C    0.96984   0.44026   0.86783   1.000
    C270    C    0.20521   0.48070   0.99703   1.000
    C271    C    0.70443   0.48137   0.99530   1.000
    C272    C    0.03714   0.43941   0.62973   1.000
    C273    C    0.53655   0.43957   0.62948   1.000
    C274    C    0.11524   0.44582   0.58583   1.000
    C275    C    0.61563   0.44601   0.58640   1.000
    C276    C    0.13122   0.51283   0.55220   1.000
    C277    C    0.63158   0.51284   0.55243   1.000
    C278    C    0.06446   0.57039   0.56539   1.000
    C279    C    0.56407   0.57026   0.56464   1.000
    C280    C    0.98842   0.56019   0.61075   1.000
    C281    C    0.48712   0.56008   0.60920   1.000
    C282    C    0.21090   0.52394   0.50458   1.000
    C283    C    0.71174   0.52385   0.50519   1.000
    C284    C    0.45339   0.84552   0.80233   1.000
    C285    C    0.95365   0.84559   0.80234   1.000
    C286    C    0.49298   0.77581   0.76874   1.000
    C287    C    0.99347   0.77577   0.76917   1.000
    C288    C    0.44676   0.76472   0.69177   1.000
    C289    C    0.94703   0.76442   0.69227   1.000
    C290    C    0.00168   0.78687   0.63573   1.000
    C291    C    0.50170   0.78723   0.63540   1.000
    C292    C    0.46022   0.77988   0.56374   1.000
    C293    C    0.95996   0.77928   0.56415   1.000
    C294    C    0.36147   0.74975   0.54737   1.000
    C295    C    0.86125   0.74899   0.54803   1.000
    C296    C    0.30597   0.72746   0.60304   1.000
    C297    C    0.80604   0.72679   0.60388   1.000
    C298    C    0.34681   0.73448   0.67525   1.000
    C299    C    0.84712   0.73405   0.67600   1.000
    C300    C    0.28457   0.70788   0.73353   1.000
    C301    C    0.78532   0.70744   0.73453   1.000
    C302    C    0.31268   0.62958   0.75760   1.000
    C303    C    0.81426   0.62934   0.75883   1.000
    C304    C    0.16958   0.01385   0.69240   1.000
    C305    C    0.67188   0.01427   0.69210   1.000
    C306    C    0.09638   0.01625   0.63294   1.000
    C307    C    0.59832   0.01631   0.63283   1.000
    C308    C    0.11529   0.97938   0.56975   1.000
    C309    C    0.61702   0.97928   0.56967   1.000
    C310    C    0.20855   0.93997   0.57190   1.000
    C311    C    0.71042   0.94005   0.57170   1.000
    C312    C    0.27818   0.94018   0.63370   1.000
    C313    C    0.78034   0.94053   0.63344   1.000
    C314    C    0.04378   0.98085   0.50403   1.000
    C315    C    0.54523   0.98048   0.50409   1.000
    C316    C    0.21151   0.93888   0.87183   1.000
    C317    C    0.71289   0.93987   0.87104   1.000
    C318    C    0.13292   0.94520   0.91534   1.000
    C319    C    0.63403   0.94635   0.91430   1.000
    C320    C    0.11666   0.01230   0.94903   1.000
    C321    C    0.61796   0.01343   0.94807   1.000
    C322    C    0.18347   0.07006   0.93624   1.000
    C323    C    0.68516   0.07105   0.93552   1.000
    C324    C    0.25997   0.05995   0.89120   1.000
    C325    C    0.76189   0.06080   0.89070   1.000
    C326    C    0.03667   0.02332   0.99641   1.000
    C327    C    0.53789   0.02448   0.99538   1.000
    N328    N    0.01171   0.52213   0.19320   1.000
    N329    N    0.51279   0.52175   0.19420   1.000
    N330    N    0.02570   0.50428   0.35901   1.000
    N331    N    0.52638   0.50468   0.35942   1.000
    N332    N    0.23807   0.02189   0.30651   1.000
    N333    N    0.73651   0.02244   0.30647   1.000
    N334    N    0.22317   0.00440   0.14086   1.000
    N335    N    0.72128   0.00404   0.14118   1.000
    N336    N    0.48645   0.47840   0.80689   1.000
    N337    N    0.98781   0.47774   0.80852   1.000
    N338    N    0.47293   0.49556   0.64153   1.000
    N339    N    0.97441   0.49556   0.64285   1.000
    N340    N    0.25996   0.97725   0.69348   1.000
    N341    N    0.76234   0.97777   0.69308   1.000
    N342    N    0.27435   0.99521   0.85910   1.000
    N343    N    0.77615   0.99605   0.85863   1.000
    O344    O    0.17305   0.65606   0.36273   1.000
    O345    O    0.67573   0.65598   0.36400   1.000
    O346    O    0.20874   0.59677   0.26230   1.000
    O347    O    0.70768   0.59789   0.26266   1.000
    O348    O    0.08890   0.88473   0.32225   1.000
    O349    O    0.59100   0.88463   0.32245   1.000
    O350    O    0.05751   0.91683   0.20512   1.000
    O351    O    0.55497   0.91706   0.20573   1.000
    O352    O    0.07576   0.15586   0.13740   1.000
    O353    O    0.57766   0.15591   0.13797   1.000
    O354    O    0.04042   0.09659   0.23770   1.000
    O355    O    0.53842   0.09689   0.23746   1.000
    O356    O    0.15984   0.38465   0.17751   1.000
    O357    O    0.66177   0.38703   0.17907   1.000
    O358    O    0.19156   0.41730   0.29467   1.000
    O359    O    0.69371   0.41792   0.29663   1.000
    O360    O    0.32527   0.34400   0.63727   1.000
    O361    O    0.82672   0.34393   0.63742   1.000
    O362    O    0.28918   0.40321   0.73767   1.000
    O363    O    0.79108   0.40291   0.73809   1.000
    O364    O    0.40915   0.11258   0.67825   1.000
    O365    O    0.91073   0.11540   0.67774   1.000
    O366    O    0.44036   0.08267   0.79591   1.000
    O367    O    0.94265   0.08307   0.79477   1.000
    O368    O    0.42198   0.84407   0.86264   1.000
    O369    O    0.92021   0.84422   0.86201   1.000
    O370    O    0.45751   0.90319   0.76233   1.000
    O371    O    0.95957   0.90328   0.76258   1.000
    O372    O    0.33780   0.61543   0.82205   1.000
    O373    O    0.83991   0.61538   0.82321   1.000
    O374    O    0.30621   0.58262   0.70490   1.000
    O375    O    0.80787   0.58221   0.70622   1.000
loop_
    _geom_bond_atom_site_label_1
    _geom_bond_atom_site_label_2
    _geom_bond_distance
    _geom_bond_site_symmetry_2
    _ccdc_geom_bond_type
    H88    C250      0.96743  1_554   S
    H89    C251      0.95361  1_554   S
    C238   C232      1.45582      .   S
    C238   H78       1.09328  1_554   S
    C238   C327      1.35282  1_564   S
    C183   C177      1.45770      .   S
    C183   H33       1.09327  1_554   S
    C183   C271      1.35510  1_554   S
    C239   C233      1.45569      .   S
    C239   H79       1.09321  1_554   S
    C239   C326      1.35270  1_664   S
    C182   C176      1.45670      .   S
    C182   H32       1.09308  1_554   S
    C182   C270      1.35463  1_554   S
    H14    C160      1.09099      .   S
    H15    C161      1.09111      .   S
    H29    C179      1.09043      .   S
    H151   C327      1.09319  1_554   S
    H28    C178      1.09033      .   S
    H150   C326      1.09325  1_554   S
    H74    C234      1.08991      .   S
    H75    C235      1.08976      .   S
    H105   C271      1.09452  1_554   S
    H104   C270      1.09326  1_554   S
    C162   C160      1.39815      .   S
    C162   C164      1.39580      .   S
    C162   H16       1.09130  1_554   S
    C163   C161      1.39817      .   S
    C163   C165      1.39587      .   S
    C163   H17       1.09134  1_554   S
    C232   C234      1.40699      .   S
    C232   C230      1.40886  1_565   S
    C233   C235      1.40692      .   S
    C233   C231      1.40880  1_565   S
    C234   C236      1.38742      .   S
    C160   C158      1.39623      .   S
    C235   C237      1.38744      .   S
    C161   C159      1.39619      .   S
    C177   C179      1.40950      .   S
    C177   C175      1.40815      .   S
    C176   C178      1.40927      .   S
    C176   C174      1.40814      .   S
    C179   C180      1.38892  1_655   S
    C178   C181      1.38776      .   S
    H72    C230      1.08823      .   S
    H73    C231      1.08841      .   S
    C230   C228      1.38217      .   S
    C231   C229      1.38210      .   S
    H19    C164      1.09091  1_655   S
    H18    C165      1.09103      .   S
    C164   C166      1.40309      .   S
    C165   C167      1.40305      .   S
    C236   H76       1.09006      .   S
    C236   N334      1.35220  1_565   S
    C237   H77       1.09001      .   S
    C237   N335      1.35200  1_565   S
    C228   N334      1.35409      .   S
    C228   H70       1.08883      .   S
    C229   N335      1.35409      .   S
    C229   H71       1.08876      .   S
    C175   H27       1.09041      .   S
    C175   C173      1.38254      .   S
    C180   H30       1.09030      .   S
    C180   N328      1.35177      .   S
    C174   H26       1.09074      .   S
    C174   C172      1.38228      .   S
    C181   H31       1.09025      .   S
    C181   N329      1.35229      .   S
    C158   H12       1.09155      .   S
    C158   C156      1.40351      .   S
    C159   H13       1.09155      .   S
    C159   C157      1.40357      .   S
    O352   C196      1.24514      .   S
    O353   C197      1.24547      .   S
    N334   Zn2       2.06087      .   S
    N335   Zn3       2.06139      .   S
    C166   C156      1.41321      .   S
    C166   C168      1.51246      .   S
    C167   C157      1.41310      .   S
    C167   C169      1.51251      .   S
    O356   C214      1.24295      .   S
    O357   C215      1.24347      .   S
    C173   N328      1.35277  1_655   S
    C173   H25       1.08960      .   S
    C156   C154      1.51248      .   S
    C172   N329      1.35262      .   S
    C172   H24       1.08941      .   S
    N328   Zn0       2.08398      .   S
    C157   C155      1.51217      .   S
    N329   Zn1       2.08142      .   S
    H47    C199      1.09679      .   S
    H46    C198      1.09697      .   S
    C196   C198      1.53846      .   S
    C196   O354      1.30329      .   S
    C197   C199      1.53845      .   S
    C197   O355      1.30362      .   S
    O350   Zn2       1.95724  1_565   S
    O350   C170      1.30516      .   S
    O351   Zn3       1.95726  1_565   S
    O351   C171      1.30523      .   S
    H21    C168      1.10085  1_655   S
    H20    C169      1.10066      .   S
    H59    C213      1.09642      .   S
    H58    C212      1.09658      .   S
    Zn2    O354      1.94729      .   S
    Zn2    N332      2.08649      .   S
    Zn3    O355      1.94788      .   S
    Zn3    N333      2.08771      .   S
    H44    C199      1.10109      .   S
    H45    C198      1.10108  1_655   S
    C199   C201      1.51273      .   S
    C198   C200      1.51257      .   S
    C168   C170      1.53959      .   S
    C168   H22       1.09649      .   S
    C169   C171      1.53921      .   S
    C169   H23       1.09652      .   S
    C214   C212      1.53956      .   S
    C214   O358      1.30485      .   S
    C215   C213      1.53908      .   S
    C215   O359      1.30543      .   S
    C170   O348      1.24273      .   S
    H60    C216      1.09065      .   S
    H61    C217      1.08953      .   S
    C171   O349      1.24277      .   S
    O346   Zn0       1.94751      .   S
    O346   C152      1.30304      .   S
    O347   Zn1       1.94340      .   S
    O347   C153      1.30325      .   S
    C212   H56       1.10097      .   S
    C212   C210      1.51239      .   S
    C213   H57       1.10099      .   S
    C213   C211      1.51294      .   S
    C154   H8        1.10116      .   S
    C154   C152      1.53856      .   S
    C154   H10       1.09693      .   S
    C155   H9        1.10135      .   S
    C155   C153      1.53869      .   S
    C155   H11       1.09683      .   S
    Zn0    O358      1.95658      .   S
    Zn0    N330      2.06173      .   S
    Zn1    O359      1.95455      .   S
    Zn1    N331      2.06690      .   S
    C152   O344      1.24508      .   S
    C153   O345      1.23291      .   S
    N333   C217      1.35289  1_545   S
    N333   C225      1.35169      .   S
    N332   C216      1.35281  1_545   S
    N332   C224      1.35174      .   S
    C217   C219      1.38289      .   S
    C216   C218      1.38287      .   S
    C201   C211      1.41312      .   S
    C201   C202      1.40364      .   S
    C200   C210      1.41313      .   S
    C200   C203      1.40339  1_455   S
    C210   C208      1.40306      .   S
    C211   C209      1.40318      .   S
    H34    C184      1.08894      .   S
    H35    C185      1.08888      .   S
    H48    C202      1.09153      .   S
    H49    C203      1.09155      .   S
    N330   C185      1.35420  1_455   S
    N330   C193      1.38763      .   S
    N331   C184      1.35417      .   S
    N331   C192      1.35233      .   S
    H63    C219      1.09088      .   S
    H62    C218      1.09082      .   S
    H67    C225      1.09037      .   S
    H66    C224      1.09038      .   S
    C202   C205      1.39620      .   S
    C203   C204      1.39627  1_655   S
    C225   C223      1.38872      .   S
    C224   C222      1.38878      .   S
    C219   C221      1.40841  1_565   S
    C218   C220      1.40831  1_565   S
    C184   C186      1.38231      .   S
    C185   C187      1.38211      .   S
    H40    C193      1.19196      .   S
    H41    C192      1.09028      .   S
    C193   C191      1.27454  1_455   S
    C192   C190      1.38756      .   S
    C208   H54       1.09091      .   S
    C208   C206      1.39570      .   S
    C209   H55       1.09083      .   S
    C209   C207      1.39566      .   S
    C186   H36       1.08834      .   S
    C186   C188      1.40914      .   S
    C187   H37       1.08824      .   S
    C187   C189      1.40906      .   S
    C223   C221      1.40965      .   S
    C223   H65       1.09050      .   S
    C222   C220      1.40969      .   S
    C222   H64       1.09039      .   S
    C221   C227      1.45763      .   S
    C220   C226      1.45778      .   S
    C205   C207      1.39823      .   S
    C205   H50       1.09099      .   S
    C191   C189      1.40700      .   S
    C191   H39       1.08976      .   S
    C190   C188      1.40703      .   S
    C190   H38       1.08980      .   S
    C204   C206      1.39817      .   S
    C204   H51       1.09106  1_455   S
    C188   C194      1.45605      .   S
    C189   C195      1.45598      .   S
    C207   H53       1.09139      .   S
    C206   H52       1.09136      .   S
    H140   C314      1.09442      .   S
    H141   C315      1.09375      .   S
    H114   C282      1.09347      .   S
    H115   C283      1.09351      .   S
    H124   C294      1.09133      .   S
    H125   C295      1.09138      .   S
    C227   C314      1.35478  1_645   S
    C227   H69       1.09374      .   S
    C226   C315      1.35481  1_545   S
    C226   H68       1.09363      .   S
    C194   C282      1.35312      .   S
    C194   H42       1.09327      .   S
    C195   C283      1.35316      .   S
    C195   H43       1.09356      .   S
    C314   C308      1.45800      .   S
    C315   C309      1.45782      .   S
    C282   C276      1.45621      .   S
    C283   C277      1.45589      .   S
    H123   C292      1.09102      .   S
    H122   C293      1.09109  1_455   S
    H137   C311      1.09035      .   S
    H136   C310      1.09038      .   S
    H111   C279      1.08977      .   S
    H110   C278      1.08968      .   S
    C294   C292      1.39818      .   S
    C294   C296      1.39581      .   S
    C295   C293      1.39821      .   S
    C295   C297      1.39587      .   S
    C276   C278      1.40694      .   S
    C276   C274      1.40896      .   S
    C277   C279      1.40703      .   S
    C277   C275      1.40900      .   S
    C292   C291      1.39637      .   S
    C293   C290      1.39628  1_655   S
    C279   C281      1.38639      .   S
    C278   C280      1.38756  1_455   S
    C309   C311      1.40963      .   S
    C309   C307      1.40841  1_565   S
    C308   C310      1.40968      .   S
    C308   C306      1.40815  1_565   S
    C311   C313      1.38902      .   S
    C310   C312      1.38777      .   S
    H108   C274      1.08822      .   S
    H109   C275      1.08826      .   S
    C274   C272      1.38231      .   S
    C275   C273      1.38220      .   S
    H126   C296      1.09087      .   S
    H127   C297      1.09088      .   S
    C296   C298      1.40300      .   S
    C297   C299      1.40271      .   S
    C281   H112      1.09051      .   S
    C281   N338      1.35314      .   S
    C280   H113      1.08998      .   S
    C280   N339      1.35241      .   S
    C273   N338      1.35421      .   S
    C273   H107      1.08890      .   S
    C272   N339      1.35402  1_455   S
    C272   H106      1.08881      .   S
    C307   H135      1.09074      .   S
    C307   C305      1.38272      .   S
    C306   H134      1.09081      .   S
    C306   C304      1.38279      .   S
    C313   H139      1.09036      .   S
    C313   N341      1.35167      .   S
    C312   H138      1.09028      .   S
    C312   N340      1.35309      .   S
    C291   H121      1.09156      .   S
    C291   C288      1.40337      .   S
    C290   H120      1.09153      .   S
    C290   C289      1.40336  1_455   S
    O360   C240      1.24513      .   S
    O361   C241      1.24512      .   S
    N338   Zn4       2.06186      .   S
    N339   Zn5       2.06743      .   S
    C298   C288      1.41319      .   S
    C298   C300      1.51256      .   S
    C299   C289      1.41314      .   S
    C299   C301      1.51282      .   S
    O365   C259      1.24266      .   S
    O364   C258      1.24341      .   S
    C288   C286      1.51252      .   S
    C305   N341      1.35278  1_545   S
    C305   H133      1.08945      .   S
    C289   C287      1.51279      .   S
    C304   N340      1.35266  1_545   S
    C304   H132      1.08949      .   S
    N341   Zn7       2.08582      .   S
    N340   Zn6       2.08530      .   S
    H82    C242      1.09661      .   S
    H83    C243      1.09686      .   S
    C240   C242      1.53811      .   S
    C240   O362      1.30316      .   S
    C241   C243      1.53886      .   S
    C241   O363      1.30300      .   S
    O374   Zn4       1.95609      .   S
    O374   C302      1.30429      .   S
    O375   Zn5       1.95492      .   S
    O375   C303      1.30510      .   S
    H128   C300      1.10089      .   S
    H129   C301      1.10130      .   S
    H94    C256      1.09640      .   S
    H95    C257      1.09660      .   S
    Zn4    O362      1.94721      .   S
    Zn4    N336      2.08602      .   S
    Zn5    O363      1.94534      .   S
    Zn5    N337      2.07334      .   S
    H81    C243      1.10124      .   S
    H80    C242      1.10110      .   S
    C242   C244      1.51294      .   S
    C243   C245      1.51255      .   S
    C300   C302      1.53916      .   S
    C300   H130      1.09654      .   S
    C301   C303      1.53920      .   S
    C301   H131      1.09656      .   S
    C259   C257      1.53949      .   S
    C259   O367      1.30520      .   S
    C258   C256      1.53945      .   S
    C258   O366      1.30513      .   S
    C302   O372      1.24418      .   S
    C303   O373      1.24325      .   S
    H97    C261      1.08955      .   S
    H96    C260      1.09005      .   S
    O370   Zn6       1.94759      .   S
    O370   C284      1.30317      .   S
    O371   Zn7       1.94735      .   S
    O371   C285      1.30354      .   S
    C256   H93       1.10103      .   S
    C256   C254      1.51272      .   S
    C257   H92       1.10076  1_655   S
    C257   C255      1.51231      .   S
    C286   H117      1.10118      .   S
    C286   C284      1.53868      .   S
    C286   H118      1.09686      .   S
    C287   H116      1.10100  1_655   S
    C287   C285      1.53812      .   S
    C287   H119      1.09682      .   S
    Zn7    O367      1.95734  1_565   S
    Zn7    N343      2.06235      .   S
    Zn6    O366      1.95671  1_565   S
    Zn6    N342      2.06151      .   S
    C284   O368      1.24520      .   S
    C285   O369      1.24545      .   S
    N336   C261      1.35299      .   S
    N336   C268      1.35160      .   S
    C244   C254      1.41307      .   S
    C244   C246      1.40350      .   S
    C245   C255      1.41317      .   S
    C245   C247      1.40341      .   S
    C261   C263      1.38262      .   S
    N337   C260      1.35274  1_655   S
    N337   C269      1.35158      .   S
    C260   C262      1.38202      .   S
    C254   C252      1.40308      .   S
    C255   C253      1.40271      .   S
    H143   C317      1.08880      .   S
    H142   C316      1.08885      .   S
    H85    C247      1.09156      .   S
    H84    C246      1.09151      .   S
    N343   C317      1.35411      .   S
    N343   C325      1.35217  1_565   S
    N342   C316      1.35423      .   S
    N342   C324      1.35250  1_565   S
    H99    C263      1.09079      .   S
    H102   C268      1.09037      .   S
    C246   C248      1.39622      .   S
    C247   C249      1.39634      .   S
    H103   C269      1.09036      .   S
    H98    C262      1.09074      .   S
    C268   C267      1.38895      .   S
    C263   C265      1.40836      .   S
    C269   C266      1.38846  1_655   S
    C262   C264      1.40839      .   S
    C317   C319      1.38217      .   S
    C316   C318      1.38221      .   S
    H149   C325      1.09001      .   S
    H148   C324      1.08992      .   S
    C325   C323      1.38754      .   S
    C324   C322      1.38766      .   S
    C252   H91       1.09092      .   S
    C252   C250      1.39579      .   S
    C253   H90       1.09093  1_655   S
    C253   C251      1.39629      .   S
    C319   H145      1.08826      .   S
    C319   C321      1.40877  1_565   S
    C318   H144      1.08801      .   S
    C318   C320      1.40878  1_565   S
    C267   C265      1.40960      .   S
    C267   H101      1.09044      .   S
    C266   C264      1.40938      .   S
    C266   H100      1.08956      .   S
    C265   C271      1.45629      .   S
    C264   C270      1.45650      .   S
    C323   C321      1.40695      .   S
    C323   H147      1.08975      .   S
    C248   C250      1.39823      .   S
    C248   H86       1.09101      .   S
    C249   C251      1.39820      .   S
    C249   H87       1.08073      .   S
    C322   C320      1.40688      .   S
    C322   H146      1.08980      .   S
    C321   C327      1.45588      .   S
    C320   C326      1.45575      .   S
