# CIF file generated by openbabel 2.4.90, see http://openbabel.sf.net
data_I
_chemical_name_common ''
_cell_length_a 18.434
_cell_length_b 18.423
_cell_length_c 18.421
_cell_angle_alpha 60.161
_cell_angle_beta 60.179
_cell_angle_gamma 60.182
_space_group_name_H-M_alt 'P 1'
_space_group_name_Hall 'P 1'
loop_
    _symmetry_equiv_pos_as_xyz
    x,y,z
loop_
    _atom_site_label
    _atom_site_type_symbol
    _atom_site_fract_x
    _atom_site_fract_y
    _atom_site_fract_z
    _atom_site_occupancy
    Zr0     Zr   0.29328   0.29339   0.11949   1.000
    Zr1     Zr   0.29364   0.29372   0.29370   1.000
    Zr2     Zr   0.11969   0.29328   0.29328   1.000
    Zr3     Zr   0.29326   0.11953   0.29337   1.000
    Zr4     Zr   0.70670   0.70664   0.88051   1.000
    Zr5     Zr   0.70635   0.70631   0.70628   1.000
    Zr6     Zr   0.70671   0.88049   0.70660   1.000
    Zr7     Zr   0.88029   0.70675   0.70671   1.000
    Zr8     Zr   0.38896   0.38912   0.11110   1.000
    Zr9     Zr   0.11099   0.11085   0.38880   1.000
    Zr10    Zr   0.38873   0.11095   0.11090   1.000
    Zr11    Zr   0.11118   0.38904   0.38900   1.000
    Zr12    Zr   0.38895   0.11112   0.38911   1.000
    Zr13    Zr   0.11100   0.38880   0.11083   1.000
    Zr14    Zr   0.61102   0.61090   0.88889   1.000
    Zr15    Zr   0.88899   0.88918   0.61120   1.000
    Zr16    Zr   0.88898   0.61122   0.88916   1.000
    Zr17    Zr   0.61103   0.88890   0.61088   1.000
    Zr18    Zr   0.88880   0.61099   0.61095   1.000
    Zr19    Zr   0.61125   0.88908   0.88910   1.000
    Zr20    Zr   0.25006   0.25001   0.20000   1.000
    Zr21    Zr   0.74992   0.75001   0.75000   1.000
    Zr22    Zr   0.36663   0.36698   0.07147   1.000
    Zr23    Zr   0.36705   0.36711   0.19493   1.000
    Zr24    Zr   0.07147   0.19464   0.36652   1.000
    Zr25    Zr   0.19472   0.07123   0.36677   1.000
    Zr26    Zr   0.36654   0.07134   0.19471   1.000
    Zr27    Zr   0.36659   0.19475   0.07128   1.000
    Zr28    Zr   0.07164   0.36675   0.36670   1.000
    Zr29    Zr   0.19492   0.36712   0.36712   1.000
    Zr30    Zr   0.36706   0.19494   0.36710   1.000
    Zr31    Zr   0.36661   0.07150   0.36697   1.000
    Zr32    Zr   0.07147   0.36651   0.19464   1.000
    Zr33    Zr   0.19473   0.36678   0.07120   1.000
    Zr34    Zr   0.63335   0.63304   0.92850   1.000
    Zr35    Zr   0.63293   0.63292   0.80500   1.000
    Zr36    Zr   0.80526   0.92880   0.63322   1.000
    Zr37    Zr   0.92851   0.80538   0.63348   1.000
    Zr38    Zr   0.92851   0.63352   0.80535   1.000
    Zr39    Zr   0.80525   0.63324   0.92880   1.000
    Zr40    Zr   0.63336   0.92852   0.63303   1.000
    Zr41    Zr   0.63292   0.80509   0.63290   1.000
    Zr42    Zr   0.80506   0.63290   0.63288   1.000
    Zr43    Zr   0.92834   0.63328   0.63323   1.000
    Zr44    Zr   0.63344   0.92868   0.80528   1.000
    Zr45    Zr   0.63339   0.80528   0.92872   1.000
    O46     O    0.15286   0.37779   0.09101   1.000
    O47     O    0.24400   0.33008   0.09534   1.000
    O48     O    0.37766   0.15285   0.09109   1.000
    O49     O    0.32994   0.24407   0.09538   1.000
    O50     O    0.37779   0.37805   0.09128   1.000
    O51     O    0.32996   0.33018   0.09548   1.000
    O52     O    0.09124   0.37766   0.15273   1.000
    O53     O    0.37764   0.09114   0.15280   1.000
    O54     O    0.37800   0.37812   0.15301   1.000
    O55     O    0.27167   0.27170   0.15974   1.000
    O56     O    0.09558   0.32989   0.24396   1.000
    O57     O    0.32990   0.09544   0.24404   1.000
    O58     O    0.33034   0.33041   0.24432   1.000
    O59     O    0.18487   0.27165   0.24664   1.000
    O60     O    0.09558   0.24396   0.32990   1.000
    O61     O    0.09566   0.33001   0.32999   1.000
    O62     O    0.24399   0.09538   0.33007   1.000
    O63     O    0.32994   0.09552   0.33017   1.000
    O64     O    0.33035   0.24433   0.33040   1.000
    O65     O    0.24428   0.33042   0.33041   1.000
    O66     O    0.09123   0.15275   0.37766   1.000
    O67     O    0.09141   0.37789   0.37785   1.000
    O68     O    0.15285   0.09104   0.37778   1.000
    O69     O    0.37778   0.09131   0.37804   1.000
    O70     O    0.37800   0.15303   0.37810   1.000
    O71     O    0.15305   0.37808   0.37806   1.000
    O72     O    0.62198   0.84699   0.62189   1.000
    O73     O    0.62220   0.90871   0.62195   1.000
    O74     O    0.84693   0.62195   0.62191   1.000
    O75     O    0.90857   0.62213   0.62209   1.000
    O76     O    0.84713   0.90899   0.62221   1.000
    O77     O    0.90875   0.84728   0.62234   1.000
    O78     O    0.75570   0.66961   0.66958   1.000
    O79     O    0.66964   0.75570   0.66959   1.000
    O80     O    0.67004   0.90451   0.66982   1.000
    O81     O    0.75599   0.90465   0.66991   1.000
    O82     O    0.90431   0.67001   0.66997   1.000
    O83     O    0.90440   0.75607   0.67009   1.000
    O84     O    0.66964   0.66961   0.75564   1.000
    O85     O    0.72832   0.81525   0.72830   1.000
    O86     O    0.67008   0.90459   0.75594   1.000
    O87     O    0.81510   0.72838   0.72835   1.000
    O88     O    0.90440   0.67013   0.75603   1.000
    O89     O    0.62198   0.62191   0.84694   1.000
    O90     O    0.62234   0.90888   0.84719   1.000
    O91     O    0.90874   0.62237   0.84725   1.000
    O92     O    0.67002   0.66984   0.90451   1.000
    O93     O    0.67004   0.75596   0.90461   1.000
    O94     O    0.75597   0.66994   0.90465   1.000
    O95     O    0.62219   0.62197   0.90869   1.000
    O96     O    0.62232   0.84718   0.90891   1.000
    O97     O    0.84712   0.62223   0.90898   1.000
    O98     O    0.27166   0.18477   0.24669   1.000
    O99     O    0.72831   0.72832   0.81525   1.000
    O100    O    0.72813   0.72816   0.72814   1.000
    N101    N    0.49999   0.00001   0.50000   1.000
    O102    O    0.54117   0.95880   0.54111   1.000
    O103    O    0.45881   0.04122   0.45888   1.000
    N104    N    0.49999   0.00001   0.99996   1.000
    O105    O    0.45873   0.04115   0.04110   1.000
    O106    O    0.54125   0.95887   0.95885   1.000
    N107    N    0.99999   0.50001   0.49999   1.000
    O108    O    0.04123   0.45885   0.45884   1.000
    O109    O    0.95875   0.54116   0.54114   1.000
    N110    N    0.99999   0.00001   0.50000   1.000
    O111    O    0.95882   0.95892   0.54123   1.000
    O112    O    0.04115   0.04111   0.45877   1.000
    N113    N    0.99999   0.50001   0.00000   1.000
    O114    O    0.95882   0.54125   0.95890   1.000
    O115    O    0.04116   0.45878   0.04110   1.000
    N116    N    0.49999   0.50001   0.99999   1.000
    O117    O    0.45881   0.45890   0.04120   1.000
    O118    O    0.54117   0.54113   0.95877   1.000
loop_
    _geom_bond_atom_site_label_1
    _geom_bond_atom_site_label_2
    _geom_bond_distance
    _geom_bond_site_symmetry_2
    _ccdc_geom_bond_type
    Zr33   O46       0.63858      .   S
    Zr13   O46       0.63858      .   S
    Zr33   O47       0.98588      .   S
    Zr0    O47       0.98588      .   S
    Zr27   O48       0.63857      .   S
    Zr10   O48       0.63857      .   S
    Zr27   O49       0.98582      .   S
    Zr0    O49       0.98582      .   S
    Zr22   O50       0.63852      .   S
    Zr8    O50       0.63852      .   S
    Zr22   O51       0.98602      .   S
    Zr0    O51       0.98602      .   S
    Zr13   O52       0.63853      .   S
    Zr32   O52       0.63853      .   S
    Zr10   O53       0.63854      .   S
    Zr26   O53       0.63854      .   S
    Zr8    O54       0.63867      .   S
    Zr23   O54       0.63867      .   S
    Zr0    O55       0.66171      .   S
    Zr20   O55       0.66171      .   S
    Zr32   O56       0.98564      .   S
    Zr2    O56       0.98564      .   S
    Zr26   O57       0.98579      .   S
    Zr3    O57       0.98579      .   S
    Zr23   O58       0.98649      .   S
    Zr1    O58       0.98649      .   S
    Zr20   O59       1.08563      .   S
    Zr2    O59       1.08563      .   S
    Zr2    O60       0.98566      .   S
    Zr24   O60       0.98566      .   S
    Zr2    O61       0.98537      .   S
    Zr28   O61       0.98537      .   S
    Zr3    O62       0.98586      .   S
    Zr25   O62       0.98586      .   S
    Zr3    O63       0.98603      .   S
    Zr31   O63       0.98603      .   S
    Zr1    O64       0.98663      .   S
    Zr30   O64       0.98663      .   S
    Zr1    O65       0.98669      .   S
    Zr29   O65       0.98669      .   S
    Zr24   O66       0.63853      .   S
    Zr9    O66       0.63853      .   S
    Zr28   O67       0.63869      .   S
    Zr11   O67       0.63869      .   S
    Zr25   O68       0.63858      .   S
    Zr9    O68       0.63858      .   S
    Zr31   O69       0.63851      .   S
    Zr12   O69       0.63851      .   S
    Zr30   O70       0.63865      .   S
    Zr12   O70       0.63865      .   S
    Zr29   O71       0.63872      .   S
    Zr11   O71       0.63872      .   S
    Zr17   O72       0.63864      .   S
    Zr41   O72       0.63864      .   S
    Zr17   O73       0.63858      .   S
    Zr40   O73       0.63858      .   S
    Zr18   O74       0.63866      .   S
    Zr42   O74       0.63866      .   S
    Zr18   O75       0.63854      .   S
    Zr43   O75       0.63854      .   S
    Zr15   O76       0.63857      .   S
    Zr36   O76       0.63857      .   S
    Zr15   O77       0.63853      .   S
    Zr37   O77       0.63853      .   S
    Zr42   O78       0.98660      .   S
    Zr5    O78       0.98660      .   S
    Zr41   O79       0.98653      .   S
    Zr5    O79       0.98653      .   S
    Zr40   O80       0.98580      .   S
    Zr6    O80       0.98580      .   S
    Zr36   O81       0.98587      .   S
    Zr6    O81       0.98587      .   S
    Zr43   O82       0.98583      .   S
    Zr7    O82       0.98583      .   S
    Zr37   O83       0.98566      .   S
    Zr7    O83       0.98566      .   S
    Zr5    O84       0.98638      .   S
    Zr35   O84       0.98638      .   S
    Zr6    O85       0.98348      .   S
    Zr21   O85       0.98348      .   S
    Zr6    O86       0.98594      .   S
    Zr44   O86       0.98594      .   S
    Zr7    O87       0.98341      .   S
    Zr21   O87       0.98341      .   S
    Zr7    O88       0.98565      .   S
    Zr38   O88       0.98565      .   S
    Zr35   O89       0.63917      .   S
    Zr14   O89       0.63917      .   S
    Zr44   O90       0.63861      .   S
    Zr19   O90       0.63861      .   S
    Zr38   O91       0.63853      .   S
    Zr16   O91       0.63853      .   S
    Zr4    O92       0.98607      .   S
    Zr34   O92       0.98607      .   S
    Zr4    O93       0.98582      .   S
    Zr45   O93       0.98582      .   S
    Zr4    O94       0.98588      .   S
    Zr39   O94       0.98588      .   S
    Zr14   O95       0.63836      .   S
    Zr34   O95       0.63836      .   S
    Zr19   O96       0.63857      .   S
    Zr45   O96       0.63857      .   S
    Zr16   O97       0.63859      .   S
    Zr39   O97       0.63859      .   S
    Zr20   O98       1.08572      .   S
    Zr3    O98       1.08572      .   S
    Zr21   O99       0.98355      .   S
    Zr4    O99       0.98355      .   S
    Zr21   O100      0.98410      .   S
    Zr5    O100      0.98410      .   S
    N101   O102      1.07368  1_545   S
    Zr17   O102      1.82158      .   S
    N101   O103      1.07372      .   S
    Zr12   O103      1.82165      .   S
    N104   O105      1.07347  1_556   S
    Zr10   O105      1.82114      .   S
    N104   O106      1.07295  1_545   S
    Zr19   O106      1.82062      .   S
    N107   O108      1.07380  1_655   S
    Zr11   O108      1.82197      .   S
    N107   O109      1.07379      .   S
    Zr18   O109      1.82167      .   S
    N110   O111      1.07325  1_545   S
    Zr15   O111      1.82090      .   S
    N110   O112      1.07325  1_655   S
    Zr9    O112      1.82091      .   S
    N113   O114      1.07332  1_554   S
    Zr16   O114      1.82100      .   S
    N113   O115      1.07329  1_655   S
    Zr13   O115      1.82090      .   S
    N116   O117      1.07369  1_556   S
    Zr8    O117      1.82162      .   S
    N116   O118      1.07369      .   S
    Zr14   O118      1.82161      .   S
