# CIF file generated by openbabel 2.4.90, see http://openbabel.sf.net
data_I
_chemical_name_common ''
_cell_length_a 6.7645
_cell_length_b 6.7675
_cell_length_c 27.873
_cell_angle_alpha 90.329
_cell_angle_beta 90.02
_cell_angle_gamma 96.05
_space_group_name_H-M_alt 'P 1'
_space_group_name_Hall 'P 1'
loop_
    _symmetry_equiv_pos_as_xyz
    x,y,z
loop_
    _atom_site_label
    _atom_site_type_symbol
    _atom_site_fract_x
    _atom_site_fract_y
    _atom_site_fract_z
    _atom_site_occupancy
    Zr0     Zr   0.31730   0.96592   0.29157   1.000
    Zr1     Zr   0.96546   0.31715   0.70839   1.000
    Zr2     Zr   0.46544   0.81735   0.79155   1.000
    Zr3     Zr   0.81726   0.46443   0.20847   1.000
    N4      N    0.38519   0.38632   0.49974   1.000
    O5      O    0.33937   0.62693   0.41017   1.000
    O6      O    0.62568   0.33958   0.58953   1.000
    N7      N    0.79476   0.34008   0.79968   1.000
    O8      O    0.84066   0.27627   0.76521   1.000
    O9      O    0.67443   0.13678   0.80337   1.000
    O10     O    0.84083   0.38277   0.76299   1.000
    O11     O    0.67775   0.52903   0.80085   1.000
    N12     N    0.29474   0.83960   0.70023   1.000
    O13     O    0.34086   0.77613   0.73461   1.000
    O14     O    0.17413   0.63634   0.69649   1.000
    O15     O    0.34068   0.88265   0.73699   1.000
    O16     O    0.17798   0.02874   0.69912   1.000
    N17     N    0.88261   0.88208   0.99983   1.000
    O18     O    0.12440   0.83789   0.91019   1.000
    O19     O    0.83766   0.12320   0.08966   1.000
    N20     N    0.83992   0.29558   0.29980   1.000
    O21     O    0.77620   0.34090   0.26538   1.000
    O22     O    0.63668   0.17503   0.30348   1.000
    O23     O    0.88276   0.34092   0.26306   1.000
    O24     O    0.02894   0.17865   0.30090   1.000
    N25     N    0.33969   0.79336   0.20026   1.000
    O26     O    0.27612   0.84019   0.23468   1.000
    O27     O    0.13637   0.67300   0.19655   1.000
    O28     O    0.38269   0.84011   0.23699   1.000
    O29     O    0.52864   0.67628   0.19915   1.000
loop_
    _geom_bond_atom_site_label_1
    _geom_bond_atom_site_label_2
    _geom_bond_distance
    _geom_bond_site_symmetry_2
    _ccdc_geom_bond_type
    N4     O5        3.02219      .   S
    Zr0    O5        4.04605      .   S
    N4     O6        3.02075      .   S
    Zr1    O6        4.04413      .   S
    N7     O8        1.10887      .   S
    Zr1    O8        1.80403      .   S
    N7     O9        1.52695      .   S
    Zr2    O9        2.47537  1_565   S
    N7     O10       1.10053      .   S
    Zr1    O10       1.81553      .   S
    N7     O11       1.57343      .   S
    Zr2    O11       2.55603      .   S
    N12    O13       1.11040      .   S
    Zr2    O13       1.80323      .   S
    N12    O14       1.52658      .   S
    Zr1    O14       2.47674  1_655   S
    N12    O15       1.09958      .   S
    Zr2    O15       1.81809      .   S
    N12    O16       1.57374  1_565   S
    Zr1    O16       2.55521  1_655   S
    N17    O18       3.01741  1_655   S
    Zr2    O18       4.04274      .   S
    N17    O19       3.01378  1_566   S
    Zr3    O19       4.03715      .   S
    N20    O21       1.10957      .   S
    Zr3    O21       1.80510      .   S
    N20    O22       1.52667      .   S
    Zr0    O22       2.47586  1_565   S
    N20    O23       1.10075      .   S
    Zr3    O23       1.81721      .   S
    N20    O24       1.57339  1_655   S
    Zr0    O24       2.55597  1_565   S
    N25    O26       1.10966      .   S
    Zr0    O26       1.80304      .   S
    N25    O27       1.52597      .   S
    Zr3    O27       2.47510  1_655   S
    N25    O28       1.09986      .   S
    Zr0    O28       1.81670      .   S
    N25    O29       1.57343      .   S
    Zr3    O29       2.55509      .   S
