# CIF file generated by openbabel 2.4.90, see http://openbabel.sf.net
data_I
_chemical_name_common ''
_cell_length_a 6.7645
_cell_length_b 6.7675
_cell_length_c 27.873
_cell_angle_alpha 90.329
_cell_angle_beta 90.02
_cell_angle_gamma 96.05
_space_group_name_H-M_alt 'P 1'
_space_group_name_Hall 'P 1'
loop_
    _symmetry_equiv_pos_as_xyz
    x,y,z
loop_
    _atom_site_label
    _atom_site_type_symbol
    _atom_site_fract_x
    _atom_site_fract_y
    _atom_site_fract_z
    _atom_site_occupancy
    N0      N    0.38519   0.38632   0.49974   1.000
    N1      N    0.79476   0.34008   0.79968   1.000
    N2      N    0.29474   0.83960   0.70023   1.000
    N3      N    0.88261   0.88208   0.99983   1.000
    N4      N    0.83992   0.29558   0.29980   1.000
    N5      N    0.33969   0.79336   0.20026   1.000
    Zr6     Zr   0.96546   0.31715   0.70839   1.000
    O7      O    0.79557   0.32837   0.64896   1.000
    O8      O    0.90306   0.29671   0.73680   1.000
    O9      O    0.07172   0.17294   0.70375   1.000
    O10     O    0.06979   0.47674   0.70244   1.000
    O11     O    0.90314   0.34996   0.73569   1.000
    Zr12    Zr   0.46544   0.81735   0.79155   1.000
    O13     O    0.29492   0.82762   0.85087   1.000
    O14     O    0.56993   0.97707   0.79746   1.000
    O15     O    0.40315   0.79674   0.76308   1.000
    O16     O    0.40306   0.85000   0.76427   1.000
    O17     O    0.57159   0.67319   0.79620   1.000
    Zr18    Zr   0.31730   0.96592   0.29157   1.000
    O19     O    0.32834   0.79643   0.35087   1.000
    O20     O    0.29671   0.90306   0.26312   1.000
    O21     O    0.35000   0.90302   0.26428   1.000
    O22     O    0.47699   0.07047   0.29753   1.000
    O23     O    0.17312   0.07228   0.29624   1.000
    Zr24    Zr   0.81726   0.46443   0.20847   1.000
    O25     O    0.82746   0.29381   0.14907   1.000
    O26     O    0.97681   0.56872   0.20251   1.000
    O27     O    0.67295   0.57035   0.20381   1.000
    O28     O    0.79673   0.40267   0.23693   1.000
    O29     O    0.85001   0.40268   0.23577   1.000
loop_
    _geom_bond_atom_site_label_1
    _geom_bond_atom_site_label_2
    _geom_bond_distance
    _geom_bond_site_symmetry_2
    _ccdc_geom_bond_type
    Zr6    O7        2.02206      .   S
    N0     O7        5.03974      .   S
    Zr6    O8        0.90202      .   S
    N1     O8        1.93262      .   S
    Zr6    O9        1.27761  1_655   S
    N2     O9        2.84423  1_565   S
    Zr6    O10       1.23837  1_655   S
    N2     O10       2.75021      .   S
    Zr6    O11       0.90776      .   S
    N1     O11       1.92753      .   S
    Zr12   O13       2.02137      .   S
    N3     O13       5.03593  1_655   S
    Zr12   O14       1.23768      .   S
    N1     O14       2.75001  1_545   S
    Zr12   O15       0.90161      .   S
    N2     O15       1.93416      .   S
    Zr12   O16       0.90904      .   S
    N2     O16       1.92758      .   S
    Zr12   O17       1.27801      .   S
    N1     O17       2.84434      .   S
    Zr18   O19       2.02302      .   S
    N0     O19       5.04231      .   S
    Zr18   O20       0.90152      .   S
    N5     O20       1.93323      .   S
    Zr18   O21       0.90835      .   S
    N5     O21       1.92722      .   S
    Zr18   O22       1.23793  1_565   S
    N4     O22       2.74995      .   S
    Zr18   O23       1.27799  1_565   S
    N4     O23       2.84430  1_655   S
    Zr24   O25       2.01858      .   S
    N3     O25       5.02929  1_566   S
    Zr24   O26       1.23755      .   S
    N5     O26       2.74870  1_455   S
    Zr24   O27       1.27754      .   S
    N5     O27       2.84396      .   S
    Zr24   O28       0.90255      .   S
    N4     O28       1.93400      .   S
    Zr24   O29       0.90860      .   S
    N4     O29       1.92863      .   S
