# CIF file generated by openbabel 2.4.90, see http://openbabel.sf.net
data_I
_chemical_name_common ''
_cell_length_a 13.183
_cell_length_b 13.173
_cell_length_c 13.98
_cell_angle_alpha 105.565
_cell_angle_beta 105.292
_cell_angle_gamma 93.379
_space_group_name_H-M_alt 'P 1'
_space_group_name_Hall 'P 1'
loop_
    _symmetry_equiv_pos_as_xyz
    x,y,z
loop_
    _atom_site_label
    _atom_site_type_symbol
    _atom_site_fract_x
    _atom_site_fract_y
    _atom_site_fract_z
    _atom_site_occupancy
    H0      H    0.52567   0.90090   0.94753   1.000
    H1      H    0.71663   0.89792   0.96197   1.000
    H2      H    0.44866   0.82347   0.61565   1.000
    H3      H    0.86025   0.86438   0.87487   1.000
    H4      H    0.03843   0.92167   0.98494   1.000
    H5      H    0.00831   0.91283   0.15040   1.000
    H6      H    0.31351   0.80182   0.22361   1.000
    H7      H    0.40353   0.88502   0.04369   1.000
    H8      H    0.41530   0.78303   0.10640   1.000
    H9      H    0.34181   0.75400   0.97230   1.000
    H10     H    0.78578   0.80431   0.54475   1.000
    H11     H    0.59435   0.80646   0.53069   1.000
    H12     H    0.09820   0.47236   0.55163   1.000
    H13     H    0.10134   0.28139   0.53790   1.000
    H14     H    0.17609   0.55235   0.88374   1.000
    H15     H    0.13555   0.13864   0.62566   1.000
    H16     H    0.07786   0.96110   0.51567   1.000
    H17     H    0.08623   0.99102   0.34992   1.000
    H18     H    0.19755   0.68542   0.27523   1.000
    H19     H    0.11524   0.59538   0.45548   1.000
    H20     H    0.21712   0.58384   0.39237   1.000
    H21     H    0.24582   0.65769   0.52656   1.000
    H22     H    0.19598   0.21598   0.95600   1.000
    H23     H    0.19344   0.40749   0.96942   1.000
    H24     H    0.47436   0.09913   0.05250   1.000
    H25     H    0.28340   0.10210   0.03806   1.000
    H26     H    0.55137   0.17655   0.38438   1.000
    H27     H    0.13978   0.13564   0.12516   1.000
    H28     H    0.96160   0.07835   0.01509   1.000
    H29     H    0.99172   0.08719   0.84956   1.000
    H30     H    0.68652   0.19820   0.77641   1.000
    H31     H    0.59650   0.11500   0.95633   1.000
    H32     H    0.58472   0.21698   0.89362   1.000
    H33     H    0.65822   0.24602   0.02765   1.000
    H34     H    0.21425   0.19571   0.45528   1.000
    H35     H    0.40568   0.19356   0.46933   1.000
    H36     H    0.90182   0.52767   0.44839   1.000
    H37     H    0.89869   0.71864   0.46212   1.000
    H38     H    0.82395   0.44767   0.11628   1.000
    H39     H    0.86448   0.86138   0.37436   1.000
    H40     H    0.92217   0.03893   0.48435   1.000
    H41     H    0.91380   0.00900   0.65010   1.000
    H42     H    0.80249   0.31460   0.72479   1.000
    H43     H    0.88479   0.40465   0.54455   1.000
    H44     H    0.78292   0.41619   0.60765   1.000
    H45     H    0.75421   0.34234   0.47347   1.000
    H46     H    0.80406   0.78405   0.04395   1.000
    H47     H    0.80660   0.59254   0.03060   1.000
    C48     C    0.47561   0.86031   0.77965   1.000
    C49     C    0.55229   0.88275   0.87820   1.000
    C50     C    0.65843   0.88073   0.88592   1.000
    C51     C    0.50824   0.83996   0.69070   1.000
    C52     C    0.69366   0.85789   0.79559   1.000
    C53     C    0.80169   0.85287   0.80014   1.000
    C54     C    0.09809   0.89735   0.04146   1.000
    C55     C    0.08158   0.89125   0.13378   1.000
    C56     C    0.15869   0.85387   0.20093   1.000
    C57     C    0.25018   0.82834   0.17220   1.000
    C58     C    0.26330   0.83820   0.07912   1.000
    C59     C    0.36173   0.81308   0.04914   1.000
    C60     C    0.83476   0.83420   0.71146   1.000
    C61     C    0.75866   0.81844   0.61365   1.000
    C62     C    0.65262   0.82009   0.60621   1.000
    C63     C    0.61684   0.83950   0.69605   1.000
    C64     C    0.13912   0.52391   0.71960   1.000
    C65     C    0.11651   0.44641   0.62118   1.000
    C66     C    0.11865   0.34025   0.61385   1.000
    C67     C    0.15953   0.49207   0.80879   1.000
    C68     C    0.14173   0.30586   0.70445   1.000
    C69     C    0.14703   0.19787   0.70028   1.000
    C70     C    0.10216   0.90133   0.45874   1.000
    C71     C    0.10798   0.91772   0.36634   1.000
    C72     C    0.14531   0.84044   0.29860   1.000
    C73     C    0.17105   0.74889   0.32697   1.000
    C74     C    0.16150   0.73590   0.42023   1.000
    C75     C    0.18691   0.63746   0.44988   1.000
    C76     C    0.16588   0.16555   0.78919   1.000
    C77     C    0.18169   0.24246   0.88694   1.000
    C78     C    0.17979   0.34852   0.89401   1.000
    C79     C    0.16017   0.38349   0.80389   1.000
    C80     C    0.52442   0.13971   0.22037   1.000
    C81     C    0.44773   0.11728   0.12182   1.000
    C82     C    0.34160   0.11930   0.11411   1.000
    C83     C    0.49179   0.16006   0.30929   1.000
    C84     C    0.30636   0.14213   0.20444   1.000
    C85     C    0.19834   0.14715   0.19988   1.000
    C86     C    0.90194   0.10267   0.95856   1.000
    C87     C    0.91845   0.10877   0.86624   1.000
    C88     C    0.84135   0.14615   0.79910   1.000
    C89     C    0.74985   0.17168   0.82770   1.000
    C90     C    0.73673   0.16183   0.92090   1.000
    C91     C    0.63830   0.18694   0.95088   1.000
    C92     C    0.16526   0.16582   0.28850   1.000
    C93     C    0.24136   0.18158   0.38637   1.000
    C94     C    0.34740   0.17993   0.39381   1.000
    C95     C    0.38318   0.16053   0.30398   1.000
    C96     C    0.86092   0.47611   0.28040   1.000
    C97     C    0.88352   0.55361   0.37884   1.000
    C98     C    0.88138   0.65978   0.38617   1.000
    C99     C    0.84050   0.50795   0.19120   1.000
    C100    C    0.85830   0.69416   0.29557   1.000
    C101    C    0.85300   0.80215   0.29974   1.000
    C102    C    0.89787   0.09870   0.54128   1.000
    C103    C    0.89206   0.08230   0.63369   1.000
    C104    C    0.85472   0.15958   0.70134   1.000
    C105    C    0.82898   0.25113   0.67305   1.000
    C106    C    0.83853   0.26413   0.57979   1.000
    C107    C    0.81312   0.36257   0.55014   1.000
    C108    C    0.83415   0.83447   0.21083   1.000
    C109    C    0.81835   0.75757   0.11308   1.000
    C110    C    0.82024   0.65150   0.10602   1.000
    C111    C    0.83986   0.61653   0.19613   1.000
    N112    N    0.18598   0.87161   0.01361   1.000
    N113    N    0.12820   0.81343   0.48625   1.000
    N114    N    0.81405   0.12841   0.98640   1.000
    N115    N    0.87183   0.18659   0.51377   1.000
loop_
    _geom_bond_atom_site_label_1
    _geom_bond_atom_site_label_2
    _geom_bond_distance
    _geom_bond_site_symmetry_2
    _ccdc_geom_bond_type
    N112   C54       1.34997      .   S
    N112   C58       1.35960      .   S
    H28    C86       1.08783  1_554   S
    H33    C91       1.09799  1_554   S
    H47    C110      1.09150      .   S
    H25    C82       1.09101      .   S
    C54    C55       1.38613      .   S
    C54    H4        1.08776  1_554   S
    H7     C59       1.09850      .   S
    H46    C109      1.08802      .   S
    C59    C58       1.49394      .   S
    C59    H8        1.09594      .   S
    C59    H9        1.09867  1_554   S
    H24    C81       1.08831      .   S
    C58    C57       1.39530      .   S
    C110   C109      1.37621      .   S
    C110   C111      1.42115      .   S
    C109   C108      1.42095      .   S
    C82    C81       1.37711      .   S
    C82    C84       1.42229      .   S
    H38    C99       1.08986      .   S
    C81    C80       1.42092      .   S
    H27    C85       1.08902      .   S
    C55    H5        1.08768      .   S
    C55    C56       1.40026      .   S
    C57    C56       1.40005      .   S
    C57    H6        1.09003      .   S
    C99    C111      1.41404      .   S
    C99    C96       1.38577      .   S
    C111   C100      1.43769      .   S
    C85    C84       1.41495      .   S
    C85    C92       1.38547      .   S
    C56    C72       1.47641      .   S
    C84    C95       1.43788      .   S
    C108   C101      1.38617      .   S
    C80    C83       1.38529      .   S
    H18    C73       1.08966      .   S
    C96    C97       1.42083      .   S
    C92    C93       1.42149      .   S
    C100   C101      1.41466      .   S
    C100   C98       1.42229      .   S
    C72    C73       1.40028      .   S
    C72    C71       1.40102      .   S
    C101   H39       1.08900      .   S
    C95    C83       1.41441      .   S
    C95    C94       1.42102      .   S
    C83    H26       1.09028      .   S
    C73    C74       1.39602      .   S
    H17    C71       1.08822      .   S
    C71    C70       1.38604      .   S
    C97    C98       1.37708      .   S
    C97    H36       1.08844      .   S
    C98    H37       1.09095      .   S
    C93    C94       1.37605      .   S
    C93    H34       1.08802      .   S
    H20    C75       1.09594      .   S
    C94    H35       1.09145      .   S
    C74    C75       1.49398      .   S
    C74    N113      1.35960      .   S
    C75    H19       1.09855      .   S
    C75    H21       1.09838      .   S
    C70    N113      1.34996      .   S
    C70    H16       1.08810      .   S
    H45    C107      1.09828      .   S
    H40    C102      1.08809      .   S
    N115   C102      1.34995      .   S
    N115   C106      1.35960      .   S
    H11    C62       1.09146      .   S
    H13    C66       1.09095      .   S
    C102   C103      1.38617      .   S
    H43    C107      1.09849      .   S
    H10    C61       1.08789      .   S
    C107   C106      1.49398      .   S
    C107   H44       1.09593      .   S
    H12    C65       1.08844      .   S
    C106   C105      1.39600      .   S
    C62    C61       1.37605      .   S
    C62    C63       1.42115      .   S
    C61    C60       1.42087      .   S
    C66    C65       1.37709      .   S
    C66    C68       1.42228      .   S
    H2     C51       1.08988      .   S
    C65    C64       1.42063      .   S
    H15    C69       1.08900      .   S
    C103   H41       1.08817      .   S
    C103   C104      1.40028      .   S
    C105   C104      1.39980      .   S
    C105   H42       1.08966      .   S
    C51    C63       1.41430      .   S
    C51    C48       1.38568      .   S
    C63    C52       1.43788      .   S
    C69    C68       1.41466      .   S
    C69    C76       1.38617      .   S
    C104   C88       1.47766      .   S
    C68    C79       1.43769      .   S
    C60    C53       1.38625      .   S
    C64    C67       1.38563      .   S
    H30    C89       1.08912      .   S
    C48    C49       1.42092      .   S
    C76    C77       1.42094      .   S
    C52    C53       1.41498      .   S
    C52    C50       1.42229      .   S
    C88    C89       1.39925      .   S
    C88    C87       1.40017      .   S
    C53    H3        1.08913      .   S
    C79    C67       1.41413      .   S
    C79    C78       1.42128      .   S
    C67    H14       1.09015      .   S
    C89    C90       1.39696      .   S
    H29    C87       1.08799      .   S
    C87    C86       1.38613      .   S
    C49    C50       1.37709      .   S
    C49    H0        1.08844      .   S
    C50    H1        1.09101      .   S
    C77    C78       1.37618      .   S
    C77    H22       1.08710      .   S
    H32    C91       1.09591      .   S
    C78    H23       1.09140      .   S
    C90    C91       1.49395      .   S
    C90    N114      1.35951      .   S
    C91    H31       1.09848      .   S
    C86    N114      1.34993      .   S
