# CIF file generated by openbabel 2.4.90, see http://openbabel.sf.net
data_I
_chemical_name_common ''
_cell_length_a 13.183
_cell_length_b 13.173
_cell_length_c 13.98
_cell_angle_alpha 105.565
_cell_angle_beta 105.292
_cell_angle_gamma 93.379
_space_group_name_H-M_alt 'P 1'
_space_group_name_Hall 'P 1'
loop_
    _symmetry_equiv_pos_as_xyz
    x,y,z
loop_
    _atom_site_label
    _atom_site_type_symbol
    _atom_site_fract_x
    _atom_site_fract_y
    _atom_site_fract_z
    _atom_site_occupancy
    C0      C    0.35943   0.85628   0.77102   1.000
    C1      C    0.95053   0.83433   0.71913   1.000
    C2      C    0.14330   0.64017   0.72810   1.000
    C3      C    0.16588   0.04969   0.78157   1.000
    C4      C    0.64060   0.14375   0.22900   1.000
    C5      C    0.04950   0.16569   0.28000   1.000
    C6      C    0.85672   0.35985   0.27192   1.000
    C7      C    0.83415   0.95033   0.21846   1.000
