# CIF file generated by openbabel 2.4.90, see http://openbabel.sf.net
data_I
_chemical_name_common ''
_cell_length_a 13.183
_cell_length_b 13.173
_cell_length_c 13.98
_cell_angle_alpha 105.565
_cell_angle_beta 105.292
_cell_angle_gamma 93.379
_space_group_name_H-M_alt 'P 1'
_space_group_name_Hall 'P 1'
loop_
    _symmetry_equiv_pos_as_xyz
    x,y,z
loop_
    _atom_site_label
    _atom_site_type_symbol
    _atom_site_fract_x
    _atom_site_fract_y
    _atom_site_fract_z
    _atom_site_occupancy
    Zr0     Zr   0.18164   0.86690   0.86240   1.000
    Zr1     Zr   0.13325   0.81813   0.63762   1.000
    Zr2     Zr   0.81838   0.13312   0.13762   1.000
    Zr3     Zr   0.86678   0.18189   0.36240   1.000
    Zr4     Zr   0.35943   0.85628   0.77102   1.000
    Zr5     Zr   0.95053   0.83433   0.71913   1.000
    Zr6     Zr   0.14330   0.64017   0.72810   1.000
    Zr7     Zr   0.16588   0.04969   0.78157   1.000
    Zr8     Zr   0.64060   0.14375   0.22900   1.000
    Zr9     Zr   0.04950   0.16569   0.28000   1.000
    Zr10    Zr   0.85672   0.35985   0.27192   1.000
    Zr11    Zr   0.83415   0.95033   0.21846   1.000
    Zr12    Zr   0.33420   0.89427   0.85424   1.000
    Zr13    Zr   0.29478   0.81402   0.68098   1.000
    Zr14    Zr   0.97756   0.83554   0.63781   1.000
    Zr15    Zr   0.01353   0.83548   0.80574   1.000
    Zr16    Zr   0.10552   0.66514   0.64499   1.000
    Zr17    Zr   0.18565   0.70521   0.81807   1.000
    Zr18    Zr   0.16456   0.02287   0.86285   1.000
    Zr19    Zr   0.16475   0.98633   0.69479   1.000
    Zr20    Zr   0.66583   0.10576   0.14579   1.000
    Zr21    Zr   0.70524   0.18601   0.31904   1.000
    Zr22    Zr   0.02247   0.16449   0.36221   1.000
    Zr23    Zr   0.98650   0.16455   0.19429   1.000
    Zr24    Zr   0.89451   0.33488   0.35500   1.000
    Zr25    Zr   0.81438   0.29482   0.18195   1.000
    Zr26    Zr   0.83547   0.97715   0.13717   1.000
    Zr27    Zr   0.83527   0.01369   0.30523   1.000
    O28     O    0.82693   0.05514   0.13739   1.000
    O29     O    0.83481   0.96374   0.17782   1.000
    O30     O    0.74211   0.11944   0.14170   1.000
    O31     O    0.81638   0.21397   0.15979   1.000
    O32     O    0.90244   0.14884   0.16595   1.000
    O33     O    0.65321   0.12475   0.18740   1.000
    O34     O    0.83555   0.32733   0.22693   1.000
    O35     O    0.01800   0.16512   0.23715   1.000
    O36     O    0.83471   0.98201   0.26184   1.000
    O37     O    0.67292   0.16488   0.27402   1.000
    O38     O    0.87561   0.34737   0.31346   1.000
    O39     O    0.03598   0.16509   0.32111   1.000
    O40     O    0.85102   0.09779   0.33382   1.000
    O41     O    0.78601   0.18395   0.34072   1.000
    O42     O    0.88064   0.25839   0.35870   1.000
    O43     O    0.94462   0.17319   0.36230   1.000
    O44     O    0.05540   0.82684   0.63771   1.000
    O45     O    0.11938   0.74164   0.64130   1.000
    O46     O    0.21402   0.81607   0.65930   1.000
    O47     O    0.14900   0.90223   0.66621   1.000
    O48     O    0.96404   0.83494   0.67847   1.000
    O49     O    0.12441   0.65266   0.68655   1.000
    O50     O    0.32711   0.83515   0.72600   1.000
    O51     O    0.16532   0.01801   0.73818   1.000
    O52     O    0.98203   0.83490   0.76243   1.000
    O53     O    0.16447   0.67269   0.77309   1.000
    O54     O    0.34681   0.87527   0.81263   1.000
    O55     O    0.16522   0.03628   0.82221   1.000
    O56     O    0.09758   0.85119   0.83407   1.000
    O57     O    0.18364   0.78605   0.84023   1.000
    O58     O    0.25792   0.88059   0.85832   1.000
    O59     O    0.17310   0.94489   0.86263   1.000
    O60     O    0.15744   0.84252   0.75001   1.000
    O61     O    0.84258   0.15751   0.25001   1.000
    N62     N    0.65526   0.84901   0.74581   1.000
    O63     O    0.53639   0.85365   0.76057   1.000
    O64     O    0.77395   0.84164   0.73055   1.000
    N65     N    0.18705   0.81237   0.24976   1.000
    O66     O    0.18543   0.84081   0.09388   1.000
    O67     O    0.15889   0.81408   0.40585   1.000
    N68     N    0.15067   0.34466   0.75416   1.000
    O69     O    0.15827   0.22614   0.76977   1.000
    O70     O    0.14594   0.46335   0.73900   1.000
    N71     N    0.81298   0.18765   0.75025   1.000
    O72     O    0.81460   0.15921   0.90613   1.000
    O73     O    0.84114   0.18595   0.59417   1.000
    N74     N    0.84936   0.65536   0.24586   1.000
    O75     O    0.85409   0.53667   0.26101   1.000
    O76     O    0.84176   0.77388   0.23025   1.000
    N77     N    0.34477   0.15101   0.25421   1.000
    O78     O    0.22607   0.15838   0.26923   1.000
    O79     O    0.46364   0.14637   0.23945   1.000
loop_
    _geom_bond_atom_site_label_1
    _geom_bond_atom_site_label_2
    _geom_bond_distance
    _geom_bond_site_symmetry_2
    _ccdc_geom_bond_type
    Zr26   O28       1.03929  1_565   S
    Zr2    O28       1.03929      .   S
    Zr26   O29       0.64065      .   S
    Zr11   O29       0.64065      .   S
    Zr2    O30       1.03023      .   S
    Zr20   O30       1.03023      .   S
    Zr2    O31       1.03027      .   S
    Zr25   O31       1.03027      .   S
    Zr2    O32       1.06073      .   S
    Zr23   O32       1.06073      .   S
    Zr20   O33       0.63750      .   S
    Zr8    O33       0.63750      .   S
    Zr25   O34       0.63690      .   S
    Zr10   O34       0.63690      .   S
    Zr23   O35       0.63041  1_655   S
    Zr9    O35       0.63041      .   S
    Zr11   O36       0.63523      .   S
    Zr27   O36       0.63523  1_545   S
    Zr8    O37       0.63695      .   S
    Zr21   O37       0.63695      .   S
    Zr10   O38       0.63728      .   S
    Zr24   O38       0.63728      .   S
    Zr9    O39       0.64678      .   S
    Zr22   O39       0.64678      .   S
    Zr27   O40       1.05908      .   S
    Zr3    O40       1.05908      .   S
    Zr21   O41       1.03146      .   S
    Zr3    O41       1.03146      .   S
    Zr24   O42       1.03087      .   S
    Zr3    O42       1.03087      .   S
    Zr22   O43       1.03960  1_455   S
    Zr3    O43       1.03960      .   S
    Zr1    O44       1.03960      .   S
    Zr14   O44       1.03960  1_655   S
    Zr1    O45       1.03080      .   S
    Zr16   O45       1.03080      .   S
    Zr1    O46       1.03147      .   S
    Zr13   O46       1.03147      .   S
    Zr1    O47       1.05908      .   S
    Zr19   O47       1.05908      .   S
    Zr14   O48       0.64078      .   S
    Zr5    O48       0.64078      .   S
    Zr16   O49       0.63746      .   S
    Zr6    O49       0.63746      .   S
    Zr13   O50       0.63696      .   S
    Zr4    O50       0.63696      .   S
    Zr19   O51       0.63527  1_565   S
    Zr7    O51       0.63527      .   S
    Zr5    O52       0.63528      .   S
    Zr15   O52       0.63528  1_455   S
    Zr6    O53       0.63690      .   S
    Zr17   O53       0.63690      .   S
    Zr4    O54       0.63756      .   S
    Zr12   O54       0.63756      .   S
    Zr7    O55       0.64059      .   S
    Zr18   O55       0.64059      .   S
    Zr15   O56       1.06072      .   S
    Zr0    O56       1.06072      .   S
    Zr17   O57       1.03027      .   S
    Zr0    O57       1.03027      .   S
    Zr12   O58       1.03021      .   S
    Zr0    O58       1.03021      .   S
    Zr0    O59       1.03929      .   S
    Zr18   O59       1.03929  1_545   S
    Zr0    O60       1.45820      .   S
    Zr1    O60       1.45820      .   S
    Zr2    O61       1.45820      .   S
    Zr3    O61       1.45820      .   S
    N62    O63       1.63617      .   S
    Zr4    O63       2.37722      .   S
    N62    O64       1.63896      .   S
    Zr5    O64       2.38069      .   S
    N65    O66       2.30309      .   S
    Zr0    O66       3.33268  1_556   S
    N65    O67       2.30259      .   S
    Zr1    O67       3.33208      .   S
    N68    O69       1.63860      .   S
    Zr7    O69       2.38006      .   S
    N68    O70       1.63572      .   S
    Zr6    O70       2.37636      .   S
    N71    O72       2.30313      .   S
    Zr2    O72       3.33280  1_554   S
    N71    O73       2.30250      .   S
    Zr3    O73       3.33199      .   S
    N74    O75       1.63571      .   S
    Zr10   O75       2.37640      .   S
    N74    O76       1.63857      .   S
    Zr11   O76       2.38002      .   S
    N77    O78       1.63775      .   S
    Zr9    O78       2.37784      .   S
    N77    O79       1.63617      .   S
    Zr8    O79       2.37723      .   S
