# CIF file generated by openbabel 2.4.90, see http://openbabel.sf.net
data_I
_chemical_name_common ''
_cell_length_a 14.647
_cell_length_b 20.817
_cell_length_c 16.596
_cell_angle_alpha 89.997
_cell_angle_beta 90.006
_cell_angle_gamma 90.004
_space_group_name_H-M_alt 'P 1'
_space_group_name_Hall 'P 1'
loop_
    _symmetry_equiv_pos_as_xyz
    x,y,z
loop_
    _atom_site_label
    _atom_site_type_symbol
    _atom_site_fract_x
    _atom_site_fract_y
    _atom_site_fract_z
    _atom_site_occupancy
    N0      N    0.58823   0.58949   0.15440   1.000
    N1      N    0.58823   0.08879   0.15438   1.000
    N2      N    0.08824   0.08879   0.15439   1.000
    N3      N    0.08823   0.58949   0.15423   1.000
    N4      N    0.08822   0.66049   0.65441   1.000
    N5      N    0.58821   0.16050   0.65441   1.000
    N6      N    0.58822   0.66049   0.65441   1.000
    N7      N    0.33823   0.91047   0.84558   1.000
    N8      N    0.83824   0.41049   0.84562   1.000
    N9      N    0.83822   0.91048   0.84562   1.000
    N10     N    0.08822   0.16050   0.65441   1.000
    N11     N    0.33826   0.33949   0.34561   1.000
    N12     N    0.33824   0.83949   0.34559   1.000
    N13     N    0.83825   0.33949   0.34560   1.000
    N14     N    0.83823   0.83949   0.34561   1.000
    N15     N    0.33825   0.41049   0.84561   1.000
    Zr16    Zr   0.84231   0.17447   0.85830   1.000
    O17     O    0.83668   0.25869   0.84402   1.000
    O18     O    0.90745   0.18339   0.77671   1.000
    Zr19    Zr   0.34233   0.67446   0.85829   1.000
    O20     O    0.40747   0.68338   0.77670   1.000
    O21     O    0.33669   0.75868   0.84400   1.000
    Zr22    Zr   0.34234   0.07552   0.35827   1.000
    O23     O    0.33670   0.99130   0.34399   1.000
    Zr24    Zr   0.59230   0.32553   0.14171   1.000
    O25     O    0.65746   0.31660   0.22330   1.000
    O26     O    0.58668   0.24113   0.15599   1.000
    Zr27    Zr   0.84232   0.57551   0.35828   1.000
    O28     O    0.83670   0.49129   0.34400   1.000
    O29     O    0.90746   0.56659   0.27665   1.000
    Zr30    Zr   0.03262   0.32553   0.14171   1.000
    O31     O    0.12762   0.31660   0.22331   1.000
    O32     O    0.05684   0.24113   0.15599   1.000
    Zr33    Zr   0.03261   0.92446   0.64172   1.000
    O34     O    0.05683   0.00869   0.65601   1.000
    O35     O    0.12761   0.93338   0.72330   1.000
    Zr36    Zr   0.34233   0.57551   0.35828   1.000
    O37     O    0.33671   0.49129   0.34400   1.000
    O38     O    0.40747   0.56659   0.27669   1.000
    Zr39    Zr   0.03261   0.42447   0.64172   1.000
    O40     O    0.12761   0.43339   0.72332   1.000
    O41     O    0.05683   0.50869   0.65601   1.000
    Zr42    Zr   0.34232   0.17447   0.85830   1.000
    O43     O    0.33670   0.25869   0.84402   1.000
    O44     O    0.40746   0.18339   0.77671   1.000
    Zr45    Zr   0.03261   0.82552   0.14171   1.000
    O46     O    0.12762   0.81659   0.22330   1.000
    O47     O    0.05684   0.74129   0.15595   1.000
    Zr48    Zr   0.84232   0.67446   0.85829   1.000
    O49     O    0.83668   0.75868   0.84401   1.000
    O50     O    0.90746   0.68338   0.77670   1.000
    Zr51    Zr   0.84233   0.07552   0.35827   1.000
    O52     O    0.83669   0.99130   0.34400   1.000
    Zr53    Zr   0.59229   0.82552   0.14172   1.000
    O54     O    0.65745   0.81659   0.22331   1.000
    O55     O    0.58667   0.74129   0.15600   1.000
    Zr56    Zr   0.59229   0.92446   0.64173   1.000
    O57     O    0.58666   0.00869   0.65602   1.000
    O58     O    0.65744   0.93338   0.72333   1.000
    Zr59    Zr   0.59231   0.42447   0.64173   1.000
    O60     O    0.65746   0.43339   0.72332   1.000
    O61     O    0.58668   0.50869   0.65601   1.000
loop_
    _geom_bond_atom_site_label_1
    _geom_bond_atom_site_label_2
    _geom_bond_distance
    _geom_bond_site_symmetry_2
    _ccdc_geom_bond_type
    Zr16   O17       1.77112      .   S
    N8     O17       3.16018      .   S
    Zr16   O18       1.66694      .   S
    N10    O18       3.37016  1_455   S
    Zr19   O20       1.66688      .   S
    N6     O20       3.36995      .   S
    Zr19   O21       1.77110      .   S
    N7     O21       3.16016      .   S
    Zr22   O23       1.77126  1_545   S
    N12    O23       3.16044      .   S
    Zr24   O25       1.66696      .   S
    N13    O25       3.37001      .   S
    Zr24   O26       1.77479      .   S
    N1     O26       3.17134      .   S
    Zr27   O28       1.77113      .   S
    N13    O28       3.16023      .   S
    Zr27   O29       1.66759      .   S
    N3     O29       3.37142  1_455   S
    Zr30   O31       1.95046      .   S
    N11    O31       3.72337      .   S
    Zr30   O32       1.80805      .   S
    N2     O32       3.20448      .   S
    Zr33   O34       1.80454  1_565   S
    N10    O34       3.19366      .   S
    Zr33   O35       1.95026      .   S
    N7     O35       3.72304      .   S
    Zr36   O37       1.77113      .   S
    N11    O37       3.16024      .   S
    Zr36   O38       1.66698      .   S
    N0     O38       3.36998      .   S
    Zr39   O40       1.95038      .   S
    N15    O40       3.72335      .   S
    Zr39   O41       1.80435      .   S
    N4     O41       3.19334      .   S
    Zr42   O43       1.77113      .   S
    N15    O43       3.16022      .   S
    Zr42   O44       1.66691      .   S
    N5     O44       3.37000      .   S
    Zr45   O46       1.95036      .   S
    N12    O46       3.72316      .   S
    Zr45   O47       1.80435      .   S
    N3     O47       3.19346      .   S
    Zr48   O49       1.77108      .   S
    N9     O49       3.16017      .   S
    Zr48   O50       1.66690      .   S
    N4     O50       3.37006  1_455   S
    Zr51   O52       1.77124  1_545   S
    N14    O52       3.16045      .   S
    Zr53   O54       1.66698      .   S
    N14    O54       3.37003      .   S
    Zr53   O55       1.77112      .   S
    N0     O55       3.16020      .   S
    Zr56   O57       1.77127  1_565   S
    N5     O57       3.16045      .   S
    Zr56   O58       1.66686      .   S
    N9     O58       3.36992      .   S
    Zr59   O60       1.66683      .   S
    N8     O60       3.36992      .   S
    Zr59   O61       1.77110      .   S
    N6     O61       3.16019      .   S
