# CIF file generated by openbabel 2.4.90, see http://openbabel.sf.net
data_I
_chemical_name_common ''
_cell_length_a 7.777
_cell_length_b 10.178
_cell_length_c 13.43
_cell_angle_alpha 68.03
_cell_angle_beta 85.139
_cell_angle_gamma 75.683
_space_group_name_H-M_alt 'P 1'
_space_group_name_Hall 'P 1'
loop_
    _symmetry_equiv_pos_as_xyz
    x,y,z
loop_
    _atom_site_label
    _atom_site_type_symbol
    _atom_site_fract_x
    _atom_site_fract_y
    _atom_site_fract_z
    _atom_site_occupancy
    N0      N    0.77129   0.02123   0.90696   1.000
    N1      N    0.22869   0.97880   0.09304   1.000
    Zr2     Zr   0.49999   0.00001   0.50000   1.000
    Zr3     Zr   0.14183   0.33939   0.45272   1.000
    O4      O    0.01507   0.26703   0.57432   1.000
    Zr5     Zr   0.85814   0.66063   0.54728   1.000
    O6      O    0.98490   0.73299   0.42568   1.000
    O7      O    0.59109   0.99932   0.59532   1.000
    O8      O    0.40890   0.00071   0.40468   1.000
    O9      O    0.82938   0.75695   0.64094   1.000
    O10     O    0.17059   0.24308   0.35906   1.000
loop_
    _geom_bond_atom_site_label_1
    _geom_bond_atom_site_label_2
    _geom_bond_distance
    _geom_bond_site_symmetry_2
    _ccdc_geom_bond_type
    Zr3    O4        1.83508      .   S
    N0     O4        4.72849  1_655   S
    Zr5    O6        1.83510      .   S
    N1     O6        4.72853  1_455   S
    Zr2    O7        1.51172  1_545   S
    N0     O7        4.62359  1_545   S
    Zr2    O8        1.51169      .   S
    N1     O8        4.62356  1_565   S
    Zr5    O9        1.83288      .   S
    N0     O9        5.14970  1_545   S
    N1     O10       5.14970  1_565   S
    Zr3    O10       1.83287      .   S
