# CIF file generated by openbabel 2.4.90, see http://openbabel.sf.net
data_I
_chemical_name_common ''
_cell_length_a 7.777
_cell_length_b 10.178
_cell_length_c 13.43
_cell_angle_alpha 68.03
_cell_angle_beta 85.139
_cell_angle_gamma 75.683
_space_group_name_H-M_alt 'P 1'
_space_group_name_Hall 'P 1'
loop_
    _symmetry_equiv_pos_as_xyz
    x,y,z
loop_
    _atom_site_label
    _atom_site_type_symbol
    _atom_site_fract_x
    _atom_site_fract_y
    _atom_site_fract_z
    _atom_site_occupancy
    N0      N    0.77129   0.02123   0.90696   1.000
    N1      N    0.22869   0.97880   0.09304   1.000
    Zr2     Zr   0.49999   0.00001   0.50000   1.000
    O3      O    0.60439   0.99190   0.60884   1.000
    O4      O    0.39560   0.00812   0.39115   1.000
    O5      O    0.57779   0.00673   0.58180   1.000
    O6      O    0.42220   0.99329   0.41820   1.000
    Zr7     Zr   0.14183   0.33939   0.45272   1.000
    O8      O    0.15686   0.24227   0.34270   1.000
    O9      O    0.17275   0.27445   0.34869   1.000
    O10     O    0.17175   0.22023   0.36160   1.000
    O11     O    0.18102   0.23535   0.38326   1.000
    O12     O    0.01507   0.26703   0.57432   1.000
    Zr13    Zr   0.85814   0.66063   0.54728   1.000
    O14     O    0.84312   0.75776   0.65730   1.000
    O15     O    0.81895   0.76467   0.61674   1.000
    O16     O    0.98490   0.73299   0.42568   1.000
    O17     O    0.82823   0.77979   0.63840   1.000
    O18     O    0.82723   0.72557   0.65131   1.000
loop_
    _geom_bond_atom_site_label_1
    _geom_bond_atom_site_label_2
    _geom_bond_distance
    _geom_bond_site_symmetry_2
    _ccdc_geom_bond_type
    Zr2    O3        1.69721  1_545   S
    N0     O3        4.44635  1_545   S
    Zr2    O4        1.69719      .   S
    N1     O4        4.44632  1_565   S
    Zr2    O5        1.32926      .   S
    N0     O5        4.80229      .   S
    Zr2    O6        1.32922  1_545   S
    N1     O6        4.80227      .   S
    Zr7    O8        2.04464      .   S
    N1     O8        4.94107  1_565   S
    Zr7    O9        1.73260      .   S
    N1     O9        5.27848  1_565   S
    Zr7    O10       1.98618      .   S
    N1     O10       5.00666  1_565   S
    Zr7    O11       1.61724      .   S
    N1     O11       5.38885  1_565   S
    Zr7    O12       1.83508      .   S
    N0     O12       4.72849  1_655   S
    Zr13   O14       2.04465      .   S
    N0     O14       4.94106  1_545   S
    Zr13   O15       1.61727      .   S
    N0     O15       5.38883  1_545   S
    Zr13   O16       1.83510      .   S
    N1     O16       4.72853  1_455   S
    Zr13   O17       1.98617      .   S
    N0     O17       5.00667  1_545   S
    Zr13   O18       1.73258      .   S
    N0     O18       5.27850  1_545   S
