# CIF file generated by openbabel 2.4.90, see http://openbabel.sf.net
data_I
_chemical_name_common ''
_cell_length_a 14.712
_cell_length_b 18.13
_cell_length_c 25.12
_cell_angle_alpha 89.962
_cell_angle_beta 90.097
_cell_angle_gamma 90.047
_space_group_name_H-M_alt 'P 1'
_space_group_name_Hall 'P 1'
loop_
    _symmetry_equiv_pos_as_xyz
    x,y,z
loop_
    _atom_site_label
    _atom_site_type_symbol
    _atom_site_fract_x
    _atom_site_fract_y
    _atom_site_fract_z
    _atom_site_occupancy
    N0      N    0.00040   0.25667   0.65002   1.000
    N1      N    0.49926   0.75666   0.65528   1.000
    N2      N    0.99954   0.74330   0.34997   1.000
    N3      N    0.49957   0.75670   0.85000   1.000
    N4      N    0.25330   0.13748   0.60149   1.000
    N5      N    0.74765   0.36846   0.60098   1.000
    N6      N    0.24764   0.13161   0.10100   1.000
    N7      N    0.75236   0.86835   0.89898   1.000
    N8      N    0.50073   0.24330   0.34471   1.000
    N9      N    0.74670   0.86248   0.39847   1.000
    N10     N    0.25235   0.63151   0.39896   1.000
    N11     N    0.00090   0.25667   0.84468   1.000
    N12     N    0.75325   0.36253   0.10152   1.000
    N13     N    0.50044   0.24327   0.14999   1.000
    N14     N    0.99910   0.74330   0.15532   1.000
    N15     N    0.24661   0.63743   0.89847   1.000
    Zr16    Zr   0.46475   0.93462   0.14808   1.000
    O17     O    0.54548   0.91464   0.21822   1.000
    O18     O    0.47462   0.02615   0.14873   1.000
    O19     O    0.33227   0.88336   0.15111   1.000
    O20     O    0.54399   0.91641   0.07709   1.000
    Zr21    Zr   0.53163   0.55261   0.14822   1.000
    O22     O    0.52329   0.46084   0.14877   1.000
    O23     O    0.45107   0.57512   0.07770   1.000
    O24     O    0.66476   0.60373   0.14969   1.000
    O25     O    0.45460   0.57421   0.21959   1.000
    Zr26    Zr   0.53525   0.06535   0.85192   1.000
    O27     O    0.66773   0.11661   0.84889   1.000
    O28     O    0.45601   0.08355   0.92290   1.000
    O29     O    0.45451   0.08533   0.78177   1.000
    O30     O    0.52538   0.97382   0.85127   1.000
    Zr31    Zr   0.50416   0.25605   0.85161   1.000
    O32     O    0.64289   0.24919   0.85340   1.000
    O33     O    0.56732   0.29005   0.92310   1.000
    O34     O    0.42878   0.21635   0.91949   1.000
    O35     O    0.44047   0.21935   0.77994   1.000
    O36     O    0.57624   0.29306   0.78385   1.000
    O37     O    0.36353   0.26281   0.84647   1.000
    Zr38    Zr   0.46837   0.44736   0.85178   1.000
    O39     O    0.33523   0.39623   0.85031   1.000
    O40     O    0.47671   0.53913   0.85123   1.000
    O41     O    0.54540   0.42576   0.78040   1.000
    O42     O    0.54889   0.42484   0.92230   1.000
    Zr43    Zr   0.03534   0.43465   0.35190   1.000
    O44     O    0.16775   0.38339   0.34888   1.000
    O45     O    0.95456   0.41468   0.28177   1.000
    O46     O    0.95608   0.41646   0.42288   1.000
    O47     O    0.02545   0.52618   0.35124   1.000
    Zr48    Zr   0.99589   0.75603   0.64839   1.000
    O49     O    0.93270   0.79003   0.57690   1.000
    O50     O    0.85719   0.74917   0.64659   1.000
    O51     O    0.13657   0.76279   0.65351   1.000
    O52     O    0.05908   0.71932   0.72005   1.000
    O53     O    0.07126   0.71632   0.58049   1.000
    O54     O    0.92380   0.79299   0.71611   1.000
    Zr55    Zr   0.00411   0.24393   0.35161   1.000
    O56     O    0.86342   0.23717   0.34649   1.000
    O57     O    0.14281   0.25079   0.35341   1.000
    O58     O    0.94042   0.28065   0.27994   1.000
    O59     O    0.07620   0.20698   0.28384   1.000
    O60     O    0.06730   0.20994   0.42309   1.000
    O61     O    0.92874   0.28365   0.41949   1.000
    Zr62    Zr   0.96810   0.05266   0.35180   1.000
    O63     O    0.83498   0.10376   0.35034   1.000
    O64     O    0.04516   0.07432   0.28041   1.000
    O65     O    0.04873   0.07518   0.42230   1.000
    O66     O    0.97651   0.96088   0.35124   1.000
    Zr67    Zr   0.03190   0.94730   0.64820   1.000
    O68     O    0.95127   0.92479   0.57769   1.000
    O69     O    0.16502   0.89620   0.64966   1.000
    O70     O    0.02348   0.03908   0.64876   1.000
    O71     O    0.95484   0.92564   0.71958   1.000
    Zr72    Zr   0.96466   0.56531   0.64811   1.000
    O73     O    0.83224   0.61657   0.65113   1.000
    O74     O    0.04540   0.58529   0.71824   1.000
    O75     O    0.04392   0.58351   0.57711   1.000
    O76     O    0.97453   0.47378   0.64876   1.000
    Zr77    Zr   0.49583   0.74392   0.14840   1.000
    O78     O    0.63646   0.73716   0.15354   1.000
    O79     O    0.55953   0.78061   0.22006   1.000
    O80     O    0.35711   0.75078   0.14660   1.000
    O81     O    0.43264   0.70992   0.07690   1.000
    O82     O    0.42376   0.70691   0.21615   1.000
    O83     O    0.57122   0.78362   0.08051   1.000
loop_
    _geom_bond_atom_site_label_1
    _geom_bond_atom_site_label_2
    _geom_bond_distance
    _geom_bond_site_symmetry_2
    _ccdc_geom_bond_type
    Zr16   O17       2.15380      .   S
    N9     O17       5.48749      .   S
    Zr16   O18       1.66571  1_565   S
    N13    O18       3.95450      .   S
    Zr16   O19       2.16007      .   S
    N14    O19       5.51958  1_655   S
    Zr16   O20       2.15785      .   S
    N7     O20       5.49823  1_556   S
    Zr21   O22       1.66818      .   S
    N13    O22       3.95870      .   S
    Zr21   O23       2.16849      .   S
    N15    O23       5.52688  1_556   S
    Zr21   O24       2.16655      .   S
    N14    O24       5.53119      .   S
    Zr21   O25       2.15877      .   S
    N10    O25       5.50373      .   S
    Zr26   O27       2.16007      .   S
    N11    O27       5.51958  1_455   S
    Zr26   O28       2.15773      .   S
    N6     O28       5.49788  1_554   S
    Zr26   O29       2.15402      .   S
    N4     O29       5.48815      .   S
    Zr26   O30       1.66570  1_545   S
    N3     O30       3.95450      .   S
    Zr31   O32       2.04520      .   S
    N11    O32       5.27363  1_455   S
    Zr31   O33       2.11262      .   S
    N12    O33       5.40900  1_554   S
    Zr31   O34       2.15861      .   S
    N6     O34       5.50224  1_554   S
    Zr31   O35       2.13478      .   S
    N4     O35       5.46252      .   S
    Zr31   O36       2.11554      .   S
    N5     O36       5.41788      .   S
    Zr31   O37       2.07646      .   S
    N11    O37       5.33628      .   S
    Zr38   O39       2.16655      .   S
    N11    O39       5.53120      .   S
    Zr38   O40       1.66818      .   S
    N3     O40       3.95870      .   S
    Zr38   O41       2.15907      .   S
    N5     O41       5.50464      .   S
    Zr38   O42       2.16818      .   S
    N12    O42       5.52595  1_554   S
    Zr43   O44       2.16064      .   S
    N8     O44       5.52109      .   S
    Zr43   O45       2.15412  1_455   S
    N12    O45       5.48833      .   S
    Zr43   O46       2.15726  1_455   S
    N5     O46       5.49659      .   S
    Zr43   O47       1.66598      .   S
    N2     O47       3.95509  1_655   S
    Zr48   O49       2.11256      .   S
    N9     O49       5.40929      .   S
    Zr48   O50       2.04463      .   S
    N1     O50       5.27255      .   S
    Zr48   O51       2.07710  1_655   S
    N1     O51       5.33725      .   S
    Zr48   O52       2.13117  1_655   S
    N15    O52       5.46435      .   S
    Zr48   O53       2.16020  1_655   S
    N10    O53       5.50587      .   S
    Zr48   O54       2.11581      .   S
    N7     O54       5.42061      .   S
    Zr55   O56       2.07711  1_455   S
    N8     O56       5.33726      .   S
    Zr55   O57       2.04462      .   S
    N8     O57       5.27254      .   S
    Zr55   O58       2.13440  1_455   S
    N12    O58       5.46180      .   S
    Zr55   O59       2.11667      .   S
    N6     O59       5.42019      .   S
    Zr55   O60       2.11233      .   S
    N4     O60       5.40861      .   S
    Zr55   O61       2.15991  1_455   S
    N5     O61       5.50496      .   S
    Zr62   O63       2.16752      .   S
    N8     O63       5.53336      .   S
    Zr62   O64       2.15888  1_655   S
    N6     O64       5.50435      .   S
    Zr62   O65       2.16870  1_655   S
    N4     O65       5.52719      .   S
    Zr62   O66       1.66875  1_545   S
    N2     O66       3.95980      .   S
    Zr67   O68       2.16892  1_455   S
    N9     O68       5.52785      .   S
    Zr67   O69       2.16753      .   S
    N1     O69       5.53336      .   S
    Zr67   O70       1.66875  1_565   S
    N0     O70       3.95983      .   S
    Zr67   O71       2.15869  1_455   S
    N7     O71       5.50410      .   S
    Zr72   O73       2.16063      .   S
    N1     O73       5.52107      .   S
    Zr72   O74       2.15373  1_655   S
    N15    O74       5.48728      .   S
    Zr72   O75       2.15764  1_655   S
    N10    O75       5.49762      .   S
    Zr72   O76       1.66598      .   S
    N0     O76       3.95506  1_455   S
    Zr77   O78       2.07645      .   S
    N14    O78       5.33628      .   S
    Zr77   O79       2.13450      .   S
    N9     O79       5.46170      .   S
    Zr77   O80       2.04520      .   S
    N14    O80       5.27363  1_655   S
    Zr77   O81       2.11296      .   S
    N15    O81       5.41001  1_556   S
    Zr77   O82       2.11520      .   S
    N10    O82       5.41679      .   S
    Zr77   O83       2.15879      .   S
    N7     O83       5.50270  1_556   S
