# CIF file generated by openbabel 2.4.90, see http://openbabel.sf.net
data_I
_chemical_name_common ''
_cell_length_a 12.365
_cell_length_b 20.163
_cell_length_c 20.18
_cell_angle_alpha 102.302
_cell_angle_beta 94.912
_cell_angle_gamma 94.696
_space_group_name_H-M_alt 'P 1'
_space_group_name_Hall 'P 1'
loop_
    _symmetry_equiv_pos_as_xyz
    x,y,z
loop_
    _atom_site_label
    _atom_site_type_symbol
    _atom_site_fract_x
    _atom_site_fract_y
    _atom_site_fract_z
    _atom_site_occupancy
    C0      C    0.36017   0.33590   0.47837   1.000
    C1      C    0.78408   0.70951   0.41712   1.000
    C2      C    0.60090   0.95697   0.43692   1.000
    C3      C    0.31870   0.64804   0.13494   1.000
    C4      C    0.75490   0.13607   0.47162   1.000
    C5      C    0.86048   0.47838   0.33583   1.000
    C6      C    0.28397   0.41736   0.70947   1.000
    C7      C    0.63231   0.38001   0.67179   1.000
    C8      C    0.66639   0.95282   0.61416   1.000
    C9      C    0.55438   0.61007   0.74861   1.000
    C10     C    0.10089   0.43735   0.95661   1.000
    C11     C    0.81850   0.13481   0.64819   1.000
    C12     C    0.25579   0.47115   0.13557   1.000
    C13     C    0.13247   0.67162   0.37999   1.000
    C14     C    0.16646   0.61475   0.95304   1.000
    C15     C    0.05445   0.74876   0.61002   1.000
