# CIF file generated by openbabel 2.4.90, see http://openbabel.sf.net
data_I
_chemical_name_common ''
_cell_length_a 12.365
_cell_length_b 20.163
_cell_length_c 20.18
_cell_angle_alpha 102.302
_cell_angle_beta 94.912
_cell_angle_gamma 94.696
_space_group_name_H-M_alt 'P 1'
_space_group_name_Hall 'P 1'
loop_
    _symmetry_equiv_pos_as_xyz
    x,y,z
loop_
    _atom_site_label
    _atom_site_type_symbol
    _atom_site_fract_x
    _atom_site_fract_y
    _atom_site_fract_z
    _atom_site_occupancy
    C0      C    0.61578   0.07295   0.55951   1.000
    C1      C    0.80517   0.01648   0.52665   1.000
    C2      C    0.41201   0.33328   0.60583   1.000
    C3      C    0.50489   0.48363   0.75530   1.000
    C4      C    0.11599   0.56046   0.07286   1.000
    C5      C    0.30521   0.52594   0.01643   1.000
    C6      C    0.91217   0.60581   0.33317   1.000
    C7      C    0.00503   0.75533   0.48350   1.000
    C8      C    0.49825   0.19955   0.53473   1.000
    C9      C    0.56519   0.21851   0.61940   1.000
    C10     C    0.53804   0.13972   0.69346   1.000
    C11     C    0.45261   0.06168   0.66272   1.000
    C12     C    0.36257   0.03485   0.54802   1.000
    C13     C    0.38283   0.09268   0.49310   1.000
    C14     C    0.31449   0.24745   0.70115   1.000
    C15     C    0.45866   0.24606   0.71573   1.000
    C16     C    0.19923   0.14142   0.65926   1.000
    C17     C    0.25849   0.06241   0.64193   1.000
    C18     C    0.30369   0.20015   0.51526   1.000
    C19     C    0.22441   0.22018   0.58590   1.000
    C20     C    0.85883   0.87194   0.46533   1.000
    C21     C    0.91418   0.88852   0.55247   1.000
    C22     C    0.98458   0.03067   0.43247   1.000
    C23     C    0.90035   0.95334   0.39585   1.000
    C24     C    0.02812   0.99435   0.60216   1.000
    C25     C    0.05938   0.05403   0.55079   1.000
    C26     C    0.97939   0.84646   0.37561   1.000
    C27     C    0.12184   0.84447   0.39777   1.000
    C28     C    0.17639   0.02837   0.46334   1.000
    C29     C    0.23475   0.94870   0.44792   1.000
    C30     C    0.19561   0.86807   0.51663   1.000
    C31     C    0.10603   0.88636   0.58000   1.000
    C32     C    0.66820   0.84913   0.35131   1.000
    C33     C    0.26866   0.86490   0.30965   1.000
    C34     C    0.38595   0.95253   0.39836   1.000
    C35     C    0.65163   0.74485   0.25814   1.000
    C36     C    0.53489   0.65751   0.16780   1.000
    C37     C    0.25062   0.75665   0.21955   1.000
    C38     C    0.92763   0.14974   0.39946   1.000
    C39     C    0.98361   0.24686   0.34721   1.000
    C40     C    0.64785   0.24712   0.46788   1.000
    C41     C    0.95149   0.36122   0.32410   1.000
    C42     C    0.68320   0.46300   0.40475   1.000
    C43     C    0.62017   0.36173   0.44952   1.000
    C44     C    0.12441   0.33742   0.62359   1.000
    C45     C    0.98289   0.51010   0.80226   1.000
    C46     C    0.18162   0.50683   0.79705   1.000
    C47     C    0.93357   0.29381   0.57351   1.000
    C48     C    0.73484   0.29722   0.57840   1.000
    C49     C    0.79184   0.46102   0.75703   1.000
    C50     C    0.77509   0.84236   0.62081   1.000
    C51     C    0.42956   0.83952   0.73168   1.000
    C52     C    0.48787   0.93665   0.68015   1.000
    C53     C    0.80085   0.72741   0.63896   1.000
    C54     C    0.73545   0.62588   0.68276   1.000
    C55     C    0.46181   0.72628   0.75677   1.000
    C56     C    0.99907   0.53487   0.19934   1.000
    C57     C    0.06546   0.61966   0.21862   1.000
    C58     C    0.03737   0.69402   0.14009   1.000
    C59     C    0.95190   0.66337   0.06196   1.000
    C60     C    0.86266   0.54848   0.03478   1.000
    C61     C    0.88365   0.49339   0.09243   1.000
    C62     C    0.81406   0.70112   0.24743   1.000
    C63     C    0.95814   0.71589   0.24623   1.000
    C64     C    0.69873   0.65933   0.14130   1.000
    C65     C    0.75787   0.64226   0.06242   1.000
    C66     C    0.80464   0.51517   0.19975   1.000
    C67     C    0.72481   0.58571   0.21982   1.000
    C68     C    0.35878   0.46514   0.87171   1.000
    C69     C    0.41349   0.55239   0.88856   1.000
    C70     C    0.48534   0.43205   0.03041   1.000
    C71     C    0.40117   0.39544   0.95294   1.000
    C72     C    0.52731   0.60200   0.99449   1.000
    C73     C    0.55921   0.55050   0.05406   1.000
    C74     C    0.48005   0.37555   0.84628   1.000
    C75     C    0.62233   0.39788   0.84449   1.000
    C76     C    0.67690   0.46320   0.02842   1.000
    C77     C    0.73519   0.44802   0.94886   1.000
    C78     C    0.69523   0.51689   0.86841   1.000
    C79     C    0.60513   0.58216   0.88666   1.000
    C80     C    0.16794   0.35136   0.84908   1.000
    C81     C    0.76872   0.30992   0.86487   1.000
    C82     C    0.88600   0.39888   0.95223   1.000
    C83     C    0.15128   0.25802   0.74500   1.000
    C84     C    0.03456   0.16769   0.65777   1.000
    C85     C    0.75050   0.21959   0.75673   1.000
    C86     C    0.42856   0.39911   0.15032   1.000
    C87     C    0.48410   0.34693   0.24772   1.000
    C88     C    0.14766   0.46763   0.24607   1.000
    C89     C    0.45144   0.32410   0.36170   1.000
    C90     C    0.18225   0.40484   0.46221   1.000
    C91     C    0.11940   0.44942   0.36064   1.000
    C92     C    0.62460   0.62338   0.33734   1.000
    C93     C    0.48302   0.80236   0.50969   1.000
    C94     C    0.68175   0.79721   0.50630   1.000
    C95     C    0.43377   0.57316   0.29380   1.000
    C96     C    0.23505   0.57801   0.29739   1.000
    C97     C    0.29200   0.75701   0.46075   1.000
    C98     C    0.27525   0.62107   0.84291   1.000
    C99     C    0.92953   0.73248   0.83905   1.000
    C100    C    0.98794   0.68110   0.93642   1.000
    C101    C    0.30128   0.63915   0.72818   1.000
    C102    C    0.23583   0.68280   0.62600   1.000
    C103    C    0.96182   0.75728   0.72588   1.000
    C104    C    0.49048   0.19448   0.58715   1.000
    C105    C    0.46266   0.11596   0.66168   1.000
    C106    C    0.37332   0.08886   0.54580   1.000
    C107    C    0.38423   0.22111   0.68338   1.000
    C108    C    0.27021   0.11673   0.64085   1.000
    C109    C    0.29441   0.19431   0.56742   1.000
    C110    C    0.93004   0.89490   0.50149   1.000
    C111    C    0.97210   0.97608   0.43181   1.000
    C112    C    0.04581   0.99965   0.55104   1.000
    C113    C    0.05006   0.87050   0.41200   1.000
    C114    C    0.16206   0.97375   0.46250   1.000
    C115    C    0.12361   0.89377   0.53150   1.000
    C116    C    0.60090   0.95697   0.43692   1.000
    C117    C    0.53402   0.90532   0.38049   1.000
    C118    C    0.58098   0.85242   0.34152   1.000
    C119    C    0.51757   0.80228   0.28990   1.000
    C120    C    0.40208   0.80592   0.27863   1.000
    C121    C    0.35602   0.86114   0.31886   1.000
    C122    C    0.42025   0.90957   0.36801   1.000
    C123    C    0.56414   0.74786   0.24889   1.000
    C124    C    0.50039   0.69965   0.19940   1.000
    C125    C    0.38603   0.70247   0.18851   1.000
    C126    C    0.33849   0.75480   0.22795   1.000
    C127    C    0.31870   0.64804   0.13494   1.000
    C128    C    0.75490   0.13607   0.47162   1.000
    C129    C    0.78461   0.19306   0.43750   1.000
    C130    C    0.87980   0.19310   0.40200   1.000
    C131    C    0.91044   0.24682   0.37380   1.000
    C132    C    0.84857   0.30381   0.37904   1.000
    C133    C    0.75238   0.30402   0.41430   1.000
    C134    C    0.72166   0.24735   0.44203   1.000
    C135    C    0.87941   0.36075   0.35171   1.000
    C136    C    0.82081   0.41713   0.36108   1.000
    C137    C    0.72681   0.41764   0.39711   1.000
    C138    C    0.69246   0.36195   0.42200   1.000
    C139    C    0.86048   0.47838   0.33583   1.000
    C140    C    0.28397   0.41736   0.70947   1.000
    C141    C    0.16424   0.42042   0.71061   1.000
    C142    C    0.09243   0.37455   0.66263   1.000
    C143    C    0.97841   0.37607   0.66299   1.000
    C144    C    0.93787   0.42497   0.71538   1.000
    C145    C    0.01352   0.47219   0.76318   1.000
    C146    C    0.12398   0.47053   0.76053   1.000
    C147    C    0.90289   0.33038   0.61376   1.000
    C148    C    0.79244   0.33204   0.61633   1.000
    C149    C    0.75209   0.37891   0.66916   1.000
    C150    C    0.82387   0.42439   0.71758   1.000
    C151    C    0.63231   0.38001   0.67179   1.000
    C152    C    0.66639   0.95282   0.61416   1.000
    C153    C    0.63523   0.89522   0.64709   1.000
    C154    C    0.69915   0.84154   0.64445   1.000
    C155    C    0.66636   0.78439   0.67103   1.000
    C156    C    0.56771   0.78389   0.70381   1.000
    C157    C    0.50472   0.84021   0.70704   1.000
    C158    C    0.53684   0.89400   0.67876   1.000
    C159    C    0.72684   0.72674   0.66472   1.000
    C160    C    0.69114   0.67094   0.68917   1.000
    C161    C    0.59501   0.67102   0.72319   1.000
    C162    C    0.53552   0.72698   0.73000   1.000
    C163    C    0.55438   0.61007   0.74861   1.000
    C164    C    0.99088   0.58736   0.19445   1.000
    C165    C    0.96213   0.66217   0.11618   1.000
    C166    C    0.87365   0.54613   0.08870   1.000
    C167    C    0.88387   0.68348   0.22116   1.000
    C168    C    0.76980   0.64105   0.11668   1.000
    C169    C    0.79491   0.56738   0.19402   1.000
    C170    C    0.42979   0.50136   0.89482   1.000
    C171    C    0.47271   0.43147   0.97583   1.000
    C172    C    0.54546   0.55086   0.99973   1.000
    C173    C    0.55051   0.41206   0.87043   1.000
    C174    C    0.66242   0.46248   0.97381   1.000
    C175    C    0.62314   0.53163   0.89400   1.000
    C176    C    0.10089   0.43735   0.95661   1.000
    C177    C    0.03393   0.38082   0.90510   1.000
    C178    C    0.08079   0.34165   0.85235   1.000
    C179    C    0.01736   0.28995   0.80231   1.000
    C180    C    0.90192   0.27873   0.80593   1.000
    C181    C    0.85598   0.31910   0.86107   1.000
    C182    C    0.92023   0.36840   0.90936   1.000
    C183    C    0.06385   0.24883   0.74798   1.000
    C184    C    0.00000   0.19932   0.69980   1.000
    C185    C    0.88577   0.18844   0.70262   1.000
    C186    C    0.83831   0.22796   0.75488   1.000
    C187    C    0.81850   0.13481   0.64819   1.000
    C188    C    0.25579   0.47115   0.13557   1.000
    C189    C    0.28501   0.43721   0.19281   1.000
    C190    C    0.38040   0.40237   0.19340   1.000
    C191    C    0.41080   0.37360   0.24726   1.000
    C192    C    0.34850   0.37888   0.30380   1.000
    C193    C    0.25213   0.41416   0.30350   1.000
    C194    C    0.22161   0.44178   0.24673   1.000
    C195    C    0.37923   0.35165   0.36095   1.000
    C196    C    0.32035   0.36110   0.41703   1.000
    C197    C    0.22614   0.39714   0.41708   1.000
    C198    C    0.19188   0.42202   0.36123   1.000
    C199    C    0.36017   0.33590   0.47837   1.000
    C200    C    0.78408   0.70951   0.41712   1.000
    C201    C    0.66436   0.71058   0.42017   1.000
    C202    C    0.59259   0.66248   0.37438   1.000
    C203    C    0.47860   0.66282   0.37594   1.000
    C204    C    0.43804   0.71531   0.42474   1.000
    C205    C    0.51364   0.76322   0.47186   1.000
    C206    C    0.62410   0.76060   0.47017   1.000
    C207    C    0.40309   0.61348   0.33037   1.000
    C208    C    0.29263   0.61603   0.33208   1.000
    C209    C    0.25225   0.66897   0.37883   1.000
    C210    C    0.32403   0.71749   0.42419   1.000
    C211    C    0.13247   0.67162   0.37999   1.000
    C212    C    0.16646   0.61475   0.95304   1.000
    C213    C    0.13537   0.64770   0.89538   1.000
    C214    C    0.19931   0.64485   0.84188   1.000
    C215    C    0.16657   0.67143   0.78466   1.000
    C216    C    0.06784   0.70434   0.78386   1.000
    C217    C    0.00480   0.70776   0.83999   1.000
    C218    C    0.03695   0.67955   0.89300   1.000
    C219    C    0.22718   0.66496   0.72723   1.000
    C220    C    0.19144   0.68933   0.67131   1.000
    C221    C    0.09520   0.72342   0.67107   1.000
    C222    C    0.03562   0.73121   0.72683   1.000
    C223    C    0.05445   0.74876   0.61002   1.000
    C224    C    0.47632   0.12101   0.58938   1.000
    C225    C    0.39544   0.22970   0.61194   1.000
    C226    C    0.36873   0.14933   0.68604   1.000
    C227    C    0.27836   0.12223   0.56946   1.000
    C228    C    0.94741   0.96895   0.50185   1.000
    C229    C    0.02755   0.85983   0.48137   1.000
    C230    C    0.06865   0.94281   0.41202   1.000
    C231    C    0.14295   0.96630   0.53203   1.000
    C232    C    0.97645   0.58981   0.12105   1.000
    C233    C    0.89572   0.61197   0.22958   1.000
    C234    C    0.86808   0.68633   0.14946   1.000
    C235    C    0.77860   0.56960   0.12202   1.000
    C236    C    0.44741   0.50156   0.96880   1.000
    C237    C    0.52737   0.48141   0.85987   1.000
    C238    C    0.56932   0.41187   0.94268   1.000
    C239    C    0.64269   0.53202   0.96648   1.000
    C240    C    0.55064   0.00379   0.47020   1.000
    C241    C    0.70197   0.94992   0.44822   1.000
    C242    C    0.37103   0.60811   0.09450   1.000
    C243    C    0.21522   0.64494   0.13393   1.000
    C244    C    0.67158   0.14079   0.50496   1.000
    C245    C    0.81583   0.08747   0.46648   1.000
    C246    C    0.92643   0.47496   0.29157   1.000
    C247    C    0.82389   0.53565   0.36390   1.000
    C248    C    0.59599   0.99512   0.60972   1.000
    C249    C    0.34518   0.47203   0.73776   1.000
    C250    C    0.31835   0.36083   0.68254   1.000
    C251    C    0.57142   0.35287   0.61657   1.000
    C252    C    0.59723   0.40602   0.72826   1.000
    C253    C    0.75940   0.95531   0.59141   1.000
    C254    C    0.59257   0.55280   0.72240   1.000
    C255    C    0.48627   0.61385   0.79166   1.000
    C256    C    0.05052   0.47177   0.00266   1.000
    C257    C    0.20232   0.44762   0.95018   1.000
    C258    C    0.87115   0.09465   0.60813   1.000
    C259    C    0.71502   0.13341   0.64512   1.000
    C260    C    0.17136   0.50368   0.13907   1.000
    C261    C    0.31837   0.46668   0.08798   1.000
    C262    C    0.42625   0.29156   0.47505   1.000
    C263    C    0.32359   0.36405   0.53552   1.000
    C264    C    0.09651   0.61131   0.99561   1.000
    C265    C    0.84539   0.73781   0.47100   1.000
    C266    C    0.81837   0.68263   0.36063   1.000
    C267    C    0.07172   0.61639   0.35284   1.000
    C268    C    0.09726   0.72813   0.40602   1.000
    C269    C    0.25891   0.59105   0.95531   1.000
    C270    C    0.09268   0.72241   0.55291   1.000
    C271    C    0.98624   0.79191   0.61366   1.000
    O272    O    0.08325   0.51611   0.03776   1.000
    O273    O    0.07570   0.45456   0.97964   1.000
    O274    O    0.31179   0.49631   0.05221   1.000
    O275    O    0.33812   0.56703   0.05547   1.000
    O276    O    0.25377   0.48678   0.98331   1.000
    O277    O    0.28206   0.55850   0.98587   1.000
    O278    O    0.37631   0.51375   0.99262   1.000
    O279    O    0.66966   0.46284   0.00111   1.000
    O280    O    0.47902   0.43176   0.00312   1.000
    O281    O    0.86816   0.54731   0.06174   1.000
    O282    O    0.55233   0.55068   0.02690   1.000
    O283    O    0.95702   0.66277   0.08907   1.000
    O284    O    0.76384   0.64166   0.08955   1.000
    O285    O    0.04622   0.57513   0.09695   1.000
    O286    O    0.16560   0.60270   0.10339   1.000
    O287    O    0.14367   0.53207   0.10596   1.000
    O288    O    0.10625   0.58588   0.03423   1.000
    O289    O    0.28708   0.46892   0.11177   1.000
    O290    O    0.87865   0.51976   0.09056   1.000
    O291    O    0.92505   0.56797   0.10488   1.000
    O292    O    0.82613   0.55787   0.10536   1.000
    O293    O    0.34487   0.62807   0.11472   1.000
    O294    O    0.96929   0.62599   0.11861   1.000
    O295    O    0.99975   0.67809   0.12813   1.000
    O296    O    0.91511   0.67425   0.13282   1.000
    O297    O    0.77420   0.60533   0.11935   1.000
    O298    O    0.73427   0.65019   0.12899   1.000
    O299    O    0.81894   0.66369   0.13307   1.000
    O300    O    0.98367   0.58858   0.15775   1.000
    O301    O    0.78676   0.56849   0.15802   1.000
    O302    O    0.26696   0.64649   0.13443   1.000
    O303    O    0.35237   0.67526   0.16173   1.000
    O304    O    0.21357   0.48742   0.13732   1.000
    O305    O    0.27040   0.45418   0.16419   1.000
    O306    O    0.87597   0.68491   0.18531   1.000
    O307    O    0.40448   0.40074   0.17186   1.000
    O308    O    0.51764   0.67858   0.18360   1.000
    O309    O    0.44321   0.70106   0.19396   1.000
    O310    O    0.36226   0.72864   0.20823   1.000
    O311    O    0.33271   0.41979   0.19311   1.000
    O312    O    0.25331   0.43949   0.21977   1.000
    O313    O    0.39560   0.38798   0.22033   1.000
    O314    O    0.79978   0.54128   0.19689   1.000
    O315    O    0.75986   0.57655   0.20692   1.000
    O316    O    0.84532   0.58968   0.21180   1.000
    O317    O    0.99498   0.56111   0.19690   1.000
    O318    O    0.02817   0.60351   0.20654   1.000
    O319    O    0.94330   0.59966   0.21202   1.000
    O320    O    0.53226   0.72375   0.22415   1.000
    O321    O    0.29456   0.75572   0.22375   1.000
    O322    O    0.88979   0.64773   0.22537   1.000
    O323    O    0.92101   0.69969   0.23369   1.000
    O324    O    0.84896   0.69230   0.23430   1.000
    O325    O    0.37029   0.78036   0.25329   1.000
    O326    O    0.90395   0.60889   0.28138   1.000
    O327    O    0.18463   0.45470   0.24640   1.000
    O328    O    0.23687   0.42797   0.27511   1.000
    O329    O    0.44745   0.36027   0.24749   1.000
    O330    O    0.37965   0.37624   0.27553   1.000
    O331    O    0.60788   0.74635   0.25352   1.000
    O332    O    0.54085   0.77507   0.26939   1.000
    O333    O    0.45983   0.80410   0.28426   1.000
    O334    O    0.37905   0.83353   0.29874   1.000
    O335    O    0.54928   0.82735   0.31571   1.000
    O336    O    0.89345   0.47667   0.31370   1.000
    O337    O    0.41843   0.59332   0.31209   1.000
    O338    O    0.26384   0.59702   0.31473   1.000
    O339    O    0.30031   0.39652   0.30365   1.000
    O340    O    0.22201   0.41809   0.33237   1.000
    O341    O    0.36386   0.36527   0.33238   1.000
    O342    O    0.31234   0.86302   0.31426   1.000
    O343    O    0.38814   0.88535   0.34343   1.000
    O344    O    0.91545   0.36099   0.33791   1.000
    O345    O    0.34786   0.61476   0.33122   1.000
    O346    O    0.44085   0.63815   0.35315   1.000
    O347    O    0.27244   0.64250   0.35545   1.000
    O348    O    0.99195   0.61110   0.34301   1.000
    O349    O    0.86527   0.64422   0.34690   1.000
    O350    O    0.86803   0.57073   0.34853   1.000
    O351    O    0.84065   0.44776   0.34846   1.000
    O352    O    0.84218   0.50702   0.34987   1.000
    O353    O    0.60859   0.64293   0.35586   1.000
    O354    O    0.62459   0.85077   0.34642   1.000
    O355    O    0.55750   0.87887   0.36101   1.000
    O356    O    0.94703   0.24684   0.36051   1.000
    O357    O    0.85011   0.38894   0.35640   1.000
    O358    O    0.86399   0.33228   0.36538   1.000
    O359    O    0.10209   0.64401   0.36641   1.000
    O360    O    0.80122   0.69607   0.38888   1.000
    O361    O    0.15564   0.43572   0.36094   1.000
    O362    O    0.41534   0.33788   0.36133   1.000
    O363    O    0.34979   0.35637   0.38899   1.000
    O364    O    0.77381   0.41738   0.37910   1.000
    O365    O    0.20901   0.40958   0.38916   1.000
    O366    O    0.47714   0.90745   0.37425   1.000
    O367    O    0.40310   0.93105   0.38318   1.000
    O368    O    0.87950   0.27531   0.37642   1.000
    O369    O    0.89512   0.21996   0.38790   1.000
    O370    O    0.53559   0.66265   0.37516   1.000
    O371    O    0.62847   0.68653   0.39728   1.000
    O372    O    0.01473   0.85848   0.39381   1.000
    O373    O    0.45832   0.68907   0.40034   1.000
    O374    O    0.19236   0.67030   0.37941   1.000
    O375    O    0.28814   0.69323   0.40151   1.000
    O376    O    0.80047   0.30391   0.39667   1.000
    O377    O    0.11486   0.69988   0.39300   1.000
    O378    O    0.56746   0.93114   0.40870   1.000
    O379    O    0.93622   0.96471   0.41383   1.000
    O380    O    0.70500   0.44032   0.40093   1.000
    O381    O    0.70964   0.38980   0.40956   1.000
    O382    O    0.08595   0.85748   0.40488   1.000
    O383    O    0.90371   0.17142   0.40073   1.000
    O384    O    0.83220   0.19308   0.41975   1.000
    O385    O    0.05115   0.74173   0.44476   1.000
    O386    O    0.05935   0.90665   0.41201   1.000
    O387    O    0.03881   0.86516   0.44668   1.000
    O388    O    0.02037   0.95944   0.42192   1.000
    O389    O    0.11535   0.95828   0.43726   1.000
    O390    O    0.72242   0.33299   0.41815   1.000
    O391    O    0.73702   0.27568   0.42817   1.000
    O392    O    0.27325   0.37912   0.41706   1.000
    O393    O    0.34026   0.34850   0.44770   1.000
    O394    O    0.20419   0.40099   0.43965   1.000
    O395    O    0.72422   0.71005   0.41865   1.000
    O396    O    0.81473   0.72366   0.44406   1.000
    O397    O    0.64423   0.73559   0.44517   1.000
    O398    O    0.65632   0.36184   0.43576   1.000
    O399    O    0.38103   0.71640   0.42447   1.000
    O400    O    0.30802   0.73725   0.44247   1.000
    O401    O    0.47584   0.73926   0.44830   1.000
    O402    O    0.97834   0.00337   0.43214   1.000
    O403    O    0.95975   0.97251   0.46683   1.000
    O404    O    0.65144   0.95344   0.44257   1.000
    O405    O    0.57577   0.98038   0.45356   1.000
    O406    O    0.75313   0.22020   0.43976   1.000
    O407    O    0.76975   0.16456   0.45456   1.000
    O408    O    0.68476   0.24723   0.45496   1.000
    O409    O    0.19840   0.96122   0.45521   1.000
    O410    O    0.75357   0.98320   0.48744   1.000
    O411    O    0.16922   0.00106   0.46292   1.000
    O412    O    0.15250   0.97003   0.49727   1.000
    O413    O    0.89443   0.88342   0.48341   1.000
    O414    O    0.78537   0.11177   0.46905   1.000
    O415    O    0.81051   0.05197   0.49657   1.000
    O416    O    0.56887   0.76191   0.47101   1.000
    O417    O    0.65292   0.77890   0.48823   1.000
    O418    O    0.58321   0.03837   0.51486   1.000
    O419    O    0.92521   0.74657   0.47725   1.000
    O420    O    0.71324   0.13843   0.48829   1.000
    O421    O    0.49833   0.78279   0.49078   1.000
    O422    O    0.39321   0.31373   0.47671   1.000
    O423    O    0.34188   0.34998   0.50695   1.000
    O424    O    0.01629   0.80758   0.48244   1.000
    O425    O    0.97879   0.87737   0.49143   1.000
    O426    O    0.07558   0.87680   0.50644   1.000
    O427    O    0.04886   0.73887   0.51821   1.000
    O428    O    0.37807   0.09077   0.51945   1.000
    O429    O    0.93872   0.93193   0.50167   1.000
    O430    O    0.92211   0.89171   0.52698   1.000
    O431    O    0.87629   0.99272   0.51425   1.000
    O432    O    0.99661   0.98430   0.52645   1.000
    O433    O    0.64368   0.10687   0.53223   1.000
    O434    O    0.29905   0.19723   0.54134   1.000
    O435    O    0.15961   0.88092   0.52407   1.000
    O436    O    0.78229   0.98589   0.55903   1.000
    O437    O    0.83816   0.05556   0.56739   1.000
    O438    O    0.13328   0.93004   0.53176   1.000
    O439    O    0.11482   0.89006   0.55575   1.000
    O440    O    0.09438   0.98298   0.54154   1.000
    O441    O    0.49437   0.19702   0.56094   1.000
    O442    O    0.36780   0.34867   0.57068   1.000
    O443    O    0.36794   0.06186   0.54691   1.000
    O444    O    0.32584   0.10554   0.55763   1.000
    O445    O    0.42482   0.10493   0.56759   1.000
    O446    O    0.05259   0.02684   0.55092   1.000
    O447    O    0.03697   0.99700   0.57660   1.000
    O448    O    0.07356   0.73559   0.58147   1.000
    O449    O    0.54605   0.09698   0.57444   1.000
    O450    O    0.60589   0.03403   0.58461   1.000
    O451    O    0.66540   0.10318   0.60232   1.000
    O452    O    0.28639   0.15827   0.56844   1.000
    O453    O    0.25941   0.20725   0.57666   1.000
    O454    O    0.34493   0.21200   0.58968   1.000
    O455    O    0.27429   0.11948   0.60515   1.000
    O456    O    0.91823   0.31209   0.59363   1.000
    O457    O    0.76364   0.31463   0.59737   1.000
    O458    O    0.48340   0.15774   0.58827   1.000
    O459    O    0.44296   0.21209   0.59955   1.000
    O460    O    0.52783   0.20650   0.60328   1.000
    O461    O    0.46949   0.11848   0.62553   1.000
    O462    O    0.71290   0.95406   0.60279   1.000
    O463    O    0.40372   0.28149   0.60889   1.000
    O464    O    0.49172   0.34308   0.61120   1.000
    O465    O    0.36518   0.34706   0.64419   1.000
    O466    O    0.84483   0.11473   0.62816   1.000
    O467    O    0.63119   0.97397   0.61194   1.000
    O468    O    0.02034   0.77034   0.61184   1.000
    O469    O    0.07482   0.73609   0.64055   1.000
    O470    O    0.38983   0.22540   0.64766   1.000
    O471    O    0.84766   0.33121   0.61505   1.000
    O472    O    0.94065   0.35322   0.63838   1.000
    O473    O    0.65081   0.92402   0.63063   1.000
    O474    O    0.77227   0.35548   0.64275   1.000
    O475    O    0.60187   0.36644   0.64418   1.000
    O476    O    0.73712   0.84195   0.63263   1.000
    O477    O    0.10842   0.35598   0.64311   1.000
    O478    O    0.21363   0.68606   0.64865   1.000
    O479    O    0.76385   0.72708   0.65184   1.000
    O480    O    0.26435   0.08957   0.64139   1.000
    O481    O    0.23472   0.12908   0.65006   1.000
    O482    O    0.31947   0.13303   0.66344   1.000
    O483    O    0.66719   0.86838   0.64577   1.000
    O484    O    0.68275   0.81296   0.65774   1.000
    O485    O    0.76676   0.13411   0.64665   1.000
    O486    O    0.58604   0.89461   0.66292   1.000
    O487    O    0.85214   0.16162   0.67541   1.000
    O488    O    0.01728   0.18350   0.67878   1.000
    O489    O    0.45764   0.08882   0.66220   1.000
    O490    O    0.41569   0.13264   0.67386   1.000
    O491    O    0.50035   0.12784   0.67757   1.000
    O492    O    0.03542   0.37531   0.66281   1.000
    O493    O    0.12833   0.39748   0.68662   1.000
    O494    O    0.95814   0.40052   0.68919   1.000
    O495    O    0.69660   0.75557   0.66787   1.000
    O496    O    0.70899   0.69884   0.67695   1.000
    O497    O    0.69220   0.37946   0.67047   1.000
    O498    O    0.78798   0.40165   0.69337   1.000
    O499    O    0.61704   0.78414   0.68742   1.000
    O500    O    0.14332   0.70638   0.67119   1.000
    O501    O    0.06541   0.72732   0.69895   1.000
    O502    O    0.20931   0.67714   0.69927   1.000
    O503    O    0.61477   0.39301   0.70003   1.000
    O504    O    0.51236   0.91532   0.67946   1.000
    O505    O    0.52078   0.86710   0.69290   1.000
    O506    O    0.30116   0.38909   0.69601   1.000
    O507    O    0.71329   0.64841   0.68597   1.000
    O508    O    0.37648   0.18522   0.68471   1.000
    O509    O    0.34936   0.23428   0.69227   1.000
    O510    O    0.42145   0.23359   0.69956   1.000
    O511    O    0.64307   0.67098   0.70618   1.000
    O512    O    0.94289   0.19388   0.70121   1.000
    O513    O    0.03192   0.22407   0.72389   1.000
    O514    O    0.86204   0.20820   0.72875   1.000
    O515    O    0.53622   0.81205   0.70543   1.000
    O516    O    0.55162   0.75543   0.71691   1.000
    O517    O    0.46714   0.83986   0.71936   1.000
    O518    O    0.22411   0.41889   0.71004   1.000
    O519    O    0.31458   0.44470   0.72362   1.000
    O520    O    0.14411   0.44547   0.73557   1.000
    O521    O    0.88087   0.42468   0.71648   1.000
    O522    O    0.97569   0.44858   0.73928   1.000
    O523    O    0.80785   0.44271   0.73731   1.000
    O524    O    0.57347   0.58144   0.73551   1.000
    O525    O    0.54873   0.51822   0.73885   1.000
    O526    O    0.56527   0.69900   0.72659   1.000
    O527    O    0.57469   0.64054   0.73590   1.000
    O528    O    0.99872   0.74425   0.72635   1.000
    O529    O    0.05173   0.71777   0.75535   1.000
    O530    O    0.26423   0.65206   0.72771   1.000
    O531    O    0.19687   0.66820   0.75595   1.000
    O532    O    0.55106   0.44482   0.74178   1.000
    O533    O    0.49867   0.72663   0.74338   1.000
    O534    O    0.42504   0.47783   0.74653   1.000
    O535    O    0.10757   0.25343   0.74649   1.000
    O536    O    0.04060   0.26939   0.77514   1.000
    O537    O    0.52032   0.61196   0.77014   1.000
    O538    O    0.79441   0.22378   0.75581   1.000
    O539    O    0.87012   0.25335   0.78041   1.000
    O540    O    0.51613   0.48252   0.80758   1.000
    O541    O    0.06875   0.47136   0.76186   1.000
    O542    O    0.15280   0.48868   0.77879   1.000
    O543    O    0.99820   0.49114   0.78272   1.000
    O544    O    0.11720   0.68788   0.78426   1.000
    O545    O    0.03632   0.70605   0.81193   1.000
    O546    O    0.18294   0.65814   0.81327   1.000
    O547    O    0.95964   0.28434   0.80412   1.000
    O548    O    0.04907   0.31580   0.82733   1.000
    O549    O    0.87895   0.29892   0.83350   1.000
    O550    O    0.96716   0.72012   0.83952   1.000
    O551    O    0.02087   0.69366   0.86650   1.000
    O552    O    0.23728   0.63296   0.84240   1.000
    O553    O    0.16734   0.64628   0.86863   1.000
    O554    O    0.58642   0.40497   0.85746   1.000
    O555    O    0.51528   0.39380   0.85836   1.000
    O556    O    0.12437   0.34650   0.85071   1.000
    O557    O    0.05736   0.36123   0.87873   1.000
    O558    O    0.53894   0.44673   0.86515   1.000
    O559    O    0.57526   0.50652   0.87694   1.000
    O560    O    0.47858   0.49139   0.87734   1.000
    O561    O    0.81235   0.31451   0.86297   1.000
    O562    O    0.88811   0.34375   0.88521   1.000
    O563    O    0.65919   0.52426   0.88121   1.000
    O564    O    0.55991   0.41196   0.90656   1.000
    O565    O    0.39429   0.48325   0.88326   1.000
    O566    O    0.61413   0.55689   0.89033   1.000
    O567    O    0.42164   0.52687   0.89169   1.000
    O568    O    0.08616   0.66363   0.89419   1.000
    O569    O    0.01245   0.68033   0.91471   1.000
    O570    O    0.63292   0.53183   0.93024   1.000
    O571    O    0.43860   0.50146   0.93181   1.000
    O572    O    0.15091   0.63123   0.92421   1.000
    O573    O    0.97708   0.37461   0.90723   1.000
    O574    O    0.06741   0.40908   0.93086   1.000
    O575    O    0.90311   0.38364   0.93080   1.000
    O576    O    0.61587   0.43718   0.95825   1.000
    O577    O    0.52101   0.42167   0.95925   1.000
    O578    O    0.69881   0.45525   0.96134   1.000
    O579    O    0.15160   0.44249   0.95339   1.000
    O580    O    0.43694   0.41346   0.96439   1.000
    O581    O    0.21269   0.60290   0.95417   1.000
    O582    O    0.13149   0.61303   0.97433   1.000
    O583    O    0.65256   0.49725   0.97015   1.000
    O584    O    0.59407   0.54144   0.98311   1.000
    O585    O    0.46006   0.46652   0.97231   1.000
    O586    O    0.49643   0.52621   0.98427   1.000
    O587    O    0.53638   0.57643   0.99711   1.000
    O588    O    0.71048   0.04472   0.54308   1.000
    O589    O    0.21060   0.54320   0.04464   1.000
loop_
    _geom_bond_atom_site_label_1
    _geom_bond_atom_site_label_2
    _geom_bond_distance
    _geom_bond_site_symmetry_2
    _ccdc_geom_bond_type
    C256   O272      1.04249      .   S
    C4     O272      1.04249      .   S
    C256   O273      0.63798  1_554   S
    C176   O273      0.63798      .   S
    C5     O274      1.03273      .   S
    C261   O274      1.03273      .   S
    C5     O275      1.04122      .   S
    C242   O275      1.04122      .   S
    C5     O276      1.04641  1_554   S
    C257   O276      1.04641      .   S
    C5     O277      1.03253  1_554   S
    C269   O277      1.03253      .   S
    C5     O278      1.05907  1_554   S
    C236   O278      1.05907      .   S
    C76    O279      0.54903      .   S
    C174   O279      0.54903  1_556   S
    C70    O280      0.54829      .   S
    C171   O280      0.54829  1_556   S
    C60    O281      0.54825      .   S
    C166   O281      0.54825      .   S
    C73    O282      0.54834      .   S
    C172   O282      0.54834  1_556   S
    C59    O283      0.54816      .   S
    C165   O283      0.54816      .   S
    C65    O284      0.54900      .   S
    C168   O284      0.54900      .   S
    C4     O285      1.05855      .   S
    C232   O285      1.05855  1_655   S
    C4     O286      1.05242      .   S
    C243   O286      1.05242      .   S
    C4     O287      1.02325      .   S
    C260   O287      1.02325      .   S
    C4     O288      1.02428      .   S
    C264   O288      1.02428  1_556   S
    C261   O289      0.63854      .   S
    C188   O289      0.63854      .   S
    C166   O290      0.54910      .   S
    C61    O290      0.54910      .   S
    C166   O291      0.74949      .   S
    C232   O291      0.74949      .   S
    C166   O292      0.73282      .   S
    C235   O292      0.73282      .   S
    C242   O293      0.63810      .   S
    C127   O293      0.63810      .   S
    C165   O294      0.75333      .   S
    C232   O294      0.75333      .   S
    C165   O295      0.54862      .   S
    C58    O295      0.54862  1_455   S
    C165   O296      0.72936      .   S
    C234   O296      0.72936      .   S
    C168   O297      0.73977      .   S
    C235   O297      0.73977      .   S
    C168   O298      0.54879      .   S
    C64    O298      0.54879      .   S
    C168   O299      0.73673      .   S
    C234   O299      0.73673      .   S
    C232   O300      0.74425      .   S
    C164   O300      0.74425      .   S
    C235   O301      0.73020      .   S
    C169   O301      0.73020      .   S
    C243   O302      0.63705      .   S
    C127   O302      0.63705      .   S
    C127   O303      0.75118      .   S
    C125   O303      0.75118      .   S
    C188   O304      0.63832      .   S
    C260   O304      0.63832      .   S
    C188   O305      0.74818      .   S
    C189   O305      0.74818      .   S
    C234   O306      0.72866      .   S
    C167   O306      0.72866      .   S
    C86    O307      0.54437      .   S
    C190   O307      0.54437      .   S
    C36    O308      0.54442      .   S
    C124   O308      0.54442      .   S
    C125   O309      0.70999      .   S
    C124   O309      0.70999      .   S
    C125   O310      0.69210      .   S
    C126   O310      0.69210      .   S
    C189   O311      0.71098      .   S
    C190   O311      0.71098      .   S
    C189   O312      0.69322      .   S
    C194   O312      0.69322      .   S
    C190   O313      0.68802      .   S
    C191   O313      0.68802      .   S
    C169   O314      0.54913      .   S
    C66    O314      0.54913      .   S
    C169   O315      0.54927      .   S
    C67    O315      0.54927      .   S
    C169   O316      0.75259      .   S
    C233   O316      0.75259      .   S
    C164   O317      0.54784      .   S
    C56    O317      0.54784      .   S
    C164   O318      0.54813  1_655   S
    C57    O318      0.54813      .   S
    C164   O319      0.74532      .   S
    C233   O319      0.74532      .   S
    C124   O320      0.68730      .   S
    C123   O320      0.68730      .   S
    C37    O321      0.54506      .   S
    C126   O321      0.54506      .   S
    C167   O322      0.75236      .   S
    C233   O322      0.75236      .   S
    C167   O323      0.54950      .   S
    C63    O323      0.54950      .   S
    C167   O324      0.54789      .   S
    C62    O324      0.54789      .   S
    C126   O325      0.70835      .   S
    C120   O325      0.70835      .   S
    C233   O326      1.05698      .   S
    C6     O326      1.05698      .   S
    C88    O327      0.54474      .   S
    C194   O327      0.54474      .   S
    C194   O328      0.70662      .   S
    C193   O328      0.70662      .   S
    C191   O329      0.54571      .   S
    C87    O329      0.54571      .   S
    C191   O330      0.71042      .   S
    C192   O330      0.71042      .   S
    C123   O331      0.54539      .   S
    C35    O331      0.54539      .   S
    C123   O332      0.71038      .   S
    C119   O332      0.71038      .   S
    C120   O333      0.71850      .   S
    C119   O333      0.71850      .   S
    C120   O334      0.71083      .   S
    C121   O334      0.71083      .   S
    C119   O335      0.70771      .   S
    C118   O335      0.70771      .   S
    C246   O336      0.62753      .   S
    C139   O336      0.62753      .   S
    C95    O337      0.54601      .   S
    C207   O337      0.54601      .   S
    C96    O338      0.54345      .   S
    C208   O338      0.54345      .   S
    C193   O339      0.71856      .   S
    C192   O339      0.71856      .   S
    C193   O340      0.71179      .   S
    C198   O340      0.71179      .   S
    C192   O341      0.70795      .   S
    C195   O341      0.70795      .   S
    C33    O342      0.54593      .   S
    C121   O342      0.54593      .   S
    C121   O343      0.68802      .   S
    C122   O343      0.68802      .   S
    C41    O344      0.54558      .   S
    C135   O344      0.54558      .   S
    C207   O345      0.68702      .   S
    C208   O345      0.68702      .   S
    C207   O346      0.71032      .   S
    C203   O346      0.71032      .   S
    C208   O347      0.71022      .   S
    C209   O347      0.71022      .   S
    C6     O348      0.98181      .   S
    C267   O348      0.98181  1_455   S
    C6     O349      1.01120      .   S
    C266   O349      1.01120      .   S
    C6     O350      0.97649      .   S
    C247   O350      0.97649      .   S
    C139   O351      0.74787      .   S
    C136   O351      0.74787      .   S
    C139   O352      0.65375      .   S
    C247   O352      0.65375      .   S
    C92    O353      0.54490      .   S
    C202   O353      0.54490      .   S
    C118   O354      0.54479      .   S
    C32    O354      0.54479      .   S
    C118   O355      0.69207      .   S
    C117   O355      0.69207      .   S
    C39    O356      0.54536      .   S
    C131   O356      0.54536      .   S
    C135   O357      0.69276      .   S
    C136   O357      0.69276      .   S
    C135   O358      0.70747      .   S
    C132   O358      0.70747      .   S
    C267   O359      0.63971      .   S
    C211   O359      0.63971      .   S
    C266   O360      0.63841      .   S
    C200   O360      0.63841      .   S
    C91    O361      0.54558      .   S
    C198   O361      0.54558      .   S
    C195   O362      0.54510      .   S
    C89    O362      0.54510      .   S
    C195   O363      0.69264      .   S
    C196   O363      0.69264      .   S
    C136   O364      0.71124      .   S
    C137   O364      0.71124      .   S
    C198   O365      0.68837      .   S
    C197   O365      0.68837      .   S
    C122   O366      0.71027      .   S
    C117   O366      0.71027      .   S
    C122   O367      0.54408      .   S
    C34    O367      0.54408      .   S
    C131   O368      0.71116      .   S
    C132   O368      0.71116      .   S
    C131   O369      0.68425      .   S
    C130   O369      0.68425      .   S
    C202   O370      0.70649      .   S
    C203   O370      0.70649      .   S
    C202   O371      0.69258      .   S
    C201   O371      0.69258      .   S
    C26    O372      0.54927  1_655   S
    C113   O372      0.54927      .   S
    C203   O373      0.71918      .   S
    C204   O373      0.71918      .   S
    C209   O374      0.74422      .   S
    C211   O374      0.74422      .   S
    C209   O375      0.69274      .   S
    C210   O375      0.69274      .   S
    C132   O376      0.71855      .   S
    C133   O376      0.71855      .   S
    C211   O377      0.63821      .   S
    C268   O377      0.63821      .   S
    C117   O378      0.75122      .   S
    C116   O378      0.75122      .   S
    C23    O379      0.54892      .   S
    C111   O379      0.54892      .   S
    C137   O380      0.54449      .   S
    C42    O380      0.54449      .   S
    C137   O381      0.68773      .   S
    C138   O381      0.68773      .   S
    C27    O382      0.54799      .   S
    C113   O382      0.54799      .   S
    C38    O383      0.54488      .   S
    C130   O383      0.54488      .   S
    C130   O384      0.71468      .   S
    C129   O384      0.71468      .   S
    C268   O385      1.01096      .   S
    C7     O385      1.01096      .   S
    C113   O386      0.72863      .   S
    C230   O386      0.72863      .   S
    C113   O387      0.75311      .   S
    C229   O387      0.75311      .   S
    C230   O388      0.73028      .   S
    C111   O388      0.73028  1_655   S
    C230   O389      0.73667      .   S
    C114   O389      0.73667      .   S
    C133   O390      0.71096      .   S
    C138   O390      0.71096      .   S
    C133   O391      0.70725      .   S
    C134   O391      0.70725      .   S
    C196   O392      0.71126      .   S
    C197   O392      0.71126      .   S
    C196   O393      0.74789      .   S
    C199   O393      0.74789      .   S
    C197   O394      0.54457      .   S
    C90    O394      0.54457      .   S
    C200   O395      0.74426      .   S
    C201   O395      0.74426      .   S
    C200   O396      0.63366      .   S
    C265   O396      0.63366      .   S
    C201   O397      0.71023      .   S
    C206   O397      0.71023      .   S
    C138   O398      0.54610      .   S
    C43    O398      0.54610      .   S
    C210   O399      0.70659      .   S
    C204   O399      0.70659      .   S
    C210   O400      0.54484      .   S
    C97    O400      0.54484      .   S
    C204   O401      0.71055      .   S
    C205   O401      0.71055      .   S
    C111   O402      0.54798  1_565   S
    C22    O402      0.54798      .   S
    C111   O403      0.75246      .   S
    C228   O403      0.75246      .   S
    C116   O404      0.63800      .   S
    C241   O404      0.63800      .   S
    C116   O405      0.63758      .   S
    C240   O405      0.63758  1_545   S
    C129   O406      0.69311      .   S
    C134   O406      0.69311      .   S
    C129   O407      0.74847      .   S
    C128   O407      0.74847      .   S
    C134   O408      0.54472      .   S
    C40    O408      0.54472      .   S
    C29    O409      0.54910      .   S
    C114   O409      0.54910      .   S
    C241   O410      1.04917      .   S
    C1     O410      1.04917  1_545   S
    C114   O411      0.54861  1_565   S
    C28    O411      0.54861      .   S
    C114   O412      0.73957      .   S
    C231   O412      0.73957      .   S
    C20    O413      0.54804      .   S
    C110   O413      0.54804      .   S
    C245   O414      0.63830      .   S
    C128   O414      0.63830      .   S
    C245   O415      1.03409      .   S
    C1     O415      1.03409      .   S
    C206   O416      0.68713      .   S
    C205   O416      0.68713      .   S
    C206   O417      0.54315      .   S
    C94    O417      0.54315      .   S
    C240   O418      1.04142      .   S
    C0     O418      1.04142      .   S
    C265   O419      0.98080      .   S
    C7     O419      0.98080  1_455   S
    C128   O420      0.63847      .   S
    C244   O420      0.63847      .   S
    C205   O421      0.54558      .   S
    C93    O421      0.54558      .   S
    C262   O422      0.62751      .   S
    C199   O422      0.62751      .   S
    C199   O423      0.65368      .   S
    C263   O423      0.65368      .   S
    C229   O424      1.05630      .   S
    C7     O424      1.05630      .   S
    C229   O425      0.74497  1_455   S
    C110   O425      0.74497      .   S
    C229   O426      0.75310      .   S
    C115   O426      0.75310      .   S
    C7     O427      0.97865      .   S
    C270   O427      0.97865      .   S
    C13    O428      0.54900      .   S
    C106   O428      0.54900      .   S
    C110   O429      0.74464      .   S
    C228   O429      0.74464      .   S
    C110   O430      0.54776      .   S
    C21    O430      0.54776      .   S
    C228   O431      1.05879      .   S
    C1     O431      1.05879  1_545   S
    C228   O432      0.75116      .   S
    C112   O432      0.75116  1_455   S
    C244   O433      1.02176      .   S
    C0     O433      1.02176      .   S
    C18    O434      0.54914      .   S
    C109   O434      0.54914      .   S
    C30    O435      0.54918      .   S
    C115   O435      0.54918      .   S
    C1     O436      1.03064  1_545   S
    C253   O436      1.03064      .   S
    C1     O437      1.03785      .   S
    C258   O437      1.03785      .   S
    C115   O438      0.73006      .   S
    C231   O438      0.73006      .   S
    C115   O439      0.52937      .   S
    C31    O439      0.52937      .   S
    C231   O440      0.73196      .   S
    C112   O440      0.73196      .   S
    C8     O441      0.54786      .   S
    C104   O441      0.54786      .   S
    C263   O442      0.97645      .   S
    C2     O442      0.97645      .   S
    C106   O443      0.54852      .   S
    C12    O443      0.54852      .   S
    C106   O444      0.73279      .   S
    C227   O444      0.73279      .   S
    C106   O445      0.74932      .   S
    C224   O445      0.74932      .   S
    C25    O446      0.54830      .   S
    C112   O446      0.54830  1_565   S
    C112   O447      0.54893      .   S
    C24    O447      0.54893      .   S
    C270   O448      0.65334      .   S
    C223   O448      0.65334      .   S
    C0     O449      1.05812      .   S
    C224   O449      1.05812      .   S
    C0     O450      1.02551      .   S
    C248   O450      1.02551  1_565   S
    C0     O451      1.05723      .   S
    C259   O451      1.05723      .   S
    C109   O452      0.73027      .   S
    C227   O452      0.73027      .   S
    C109   O453      0.54927      .   S
    C19    O453      0.54927      .   S
    C109   O454      0.75256      .   S
    C225   O454      0.75256      .   S
    C227   O455      0.73977      .   S
    C108   O455      0.73977      .   S
    C47    O456      0.54560      .   S
    C147   O456      0.54560      .   S
    C48    O457      0.54356      .   S
    C148   O457      0.54356      .   S
    C104   O458      0.74409      .   S
    C224   O458      0.74409      .   S
    C104   O459      0.74519      .   S
    C225   O459      0.74519      .   S
    C104   O460      0.54797      .   S
    C9     O460      0.54797      .   S
    C224   O461      0.75337      .   S
    C105   O461      0.75337      .   S
    C253   O462      0.63774      .   S
    C152   O462      0.63774      .   S
    C2     O463      1.05635      .   S
    C225   O463      1.05635      .   S
    C2     O464      0.98125      .   S
    C251   O464      0.98125      .   S
    C2     O465      1.01140      .   S
    C250   O465      1.01140      .   S
    C258   O466      0.63850      .   S
    C187   O466      0.63850      .   S
    C248   O467      0.63909      .   S
    C152   O467      0.63909      .   S
    C223   O468      0.62798      .   S
    C271   O468      0.62798  1_655   S
    C223   O469      0.74777      .   S
    C221   O469      0.74777      .   S
    C225   O470      0.75235      .   S
    C107   O470      0.75235      .   S
    C147   O471      0.68700      .   S
    C148   O471      0.68700      .   S
    C147   O472      0.71027      .   S
    C143   O472      0.71027      .   S
    C152   O473      0.74805      .   S
    C153   O473      0.74805      .   S
    C148   O474      0.71016      .   S
    C149   O474      0.71016      .   S
    C251   O475      0.63972      .   S
    C151   O475      0.63972      .   S
    C50    O476      0.54479      .   S
    C154   O476      0.54479      .   S
    C44    O477      0.54496      .   S
    C142   O477      0.54496      .   S
    C102   O478      0.54799      .   S
    C220   O478      0.54799      .   S
    C53    O479      0.54550      .   S
    C159   O479      0.54550      .   S
    C108   O480      0.54900      .   S
    C17    O480      0.54900      .   S
    C108   O481      0.54883      .   S
    C16    O481      0.54883      .   S
    C108   O482      0.73666      .   S
    C226   O482      0.73666      .   S
    C154   O483      0.69313      .   S
    C153   O483      0.69313      .   S
    C154   O484      0.70783      .   S
    C155   O484      0.70783      .   S
    C259   O485      0.63671      .   S
    C187   O485      0.63671      .   S
    C153   O486      0.71133      .   S
    C158   O486      0.71133      .   S
    C187   O487      0.75126      .   S
    C185   O487      0.75126      .   S
    C84    O488      0.54426      .   S
    C184   O488      0.54426      .   S
    C105   O489      0.54810      .   S
    C11    O489      0.54810      .   S
    C105   O490      0.72941      .   S
    C226   O490      0.72941      .   S
    C105   O491      0.54845      .   S
    C10    O491      0.54845      .   S
    C142   O492      0.70662      .   S
    C143   O492      0.70662  1_655   S
    C142   O493      0.69251      .   S
    C141   O493      0.69251      .   S
    C143   O494      0.71918      .   S
    C144   O494      0.71918      .   S
    C159   O495      0.71098      .   S
    C155   O495      0.71098      .   S
    C159   O496      0.68861      .   S
    C160   O496      0.68861      .   S
    C149   O497      0.74421      .   S
    C151   O497      0.74421      .   S
    C149   O498      0.69277      .   S
    C150   O498      0.69277      .   S
    C155   O499      0.71846      .   S
    C156   O499      0.71846      .   S
    C221   O500      0.71119      .   S
    C220   O500      0.71119      .   S
    C221   O501      0.69268      .   S
    C222   O501      0.69268      .   S
    C220   O502      0.68854      .   S
    C219   O502      0.68854      .   S
    C151   O503      0.63816      .   S
    C252   O503      0.63816      .   S
    C158   O504      0.54428      .   S
    C52    O504      0.54428      .   S
    C158   O505      0.68772      .   S
    C157   O505      0.68772      .   S
    C250   O506      0.63842      .   S
    C140   O506      0.63842      .   S
    C54    O507      0.54457      .   S
    C160   O507      0.54457      .   S
    C107   O508      0.72871      .   S
    C226   O508      0.72871      .   S
    C107   O509      0.54791      .   S
    C14    O509      0.54791      .   S
    C107   O510      0.54947      .   S
    C15    O510      0.54947      .   S
    C160   O511      0.71129      .   S
    C161   O511      0.71129      .   S
    C184   O512      0.70970  1_455   S
    C185   O512      0.70970      .   S
    C184   O513      0.68759      .   S
    C183   O513      0.68759      .   S
    C185   O514      0.69213      .   S
    C186   O514      0.69213      .   S
    C156   O515      0.71099      .   S
    C157   O515      0.71099      .   S
    C156   O516      0.70256      .   S
    C162   O516      0.70256      .   S
    C157   O517      0.54573      .   S
    C51    O517      0.54573      .   S
    C140   O518      0.74433      .   S
    C141   O518      0.74433      .   S
    C140   O519      0.63937      .   S
    C249   O519      0.63937      .   S
    C141   O520      0.71027      .   S
    C146   O520      0.71027      .   S
    C144   O521      0.70663      .   S
    C150   O521      0.70663      .   S
    C144   O522      0.71066      .   S
    C145   O522      0.71066  1_455   S
    C150   O523      0.54488      .   S
    C49    O523      0.54488      .   S
    C254   O524      0.65337      .   S
    C163   O524      0.65337      .   S
    C254   O525      0.97875      .   S
    C3     O525      0.97875      .   S
    C161   O526      0.69286      .   S
    C162   O526      0.69286      .   S
    C161   O527      0.74792      .   S
    C163   O527      0.74792      .   S
    C103   O528      0.54522      .   S
    C222   O528      0.54522  1_455   S
    C222   O529      0.70703      .   S
    C216   O529      0.70703      .   S
    C219   O530      0.54550      .   S
    C101   O530      0.54550      .   S
    C219   O531      0.71100      .   S
    C215   O531      0.71100      .   S
    C252   O532      1.01065      .   S
    C3     O532      1.01065      .   S
    C162   O533      0.54957      .   S
    C55    O533      0.54957      .   S
    C249   O534      0.98097      .   S
    C3     O534      0.98097      .   S
    C83    O535      0.54541      .   S
    C183   O535      0.54541      .   S
    C183   O536      0.71038      .   S
    C179   O536      0.71038      .   S
    C163   O537      0.62795      .   S
    C255   O537      0.62795      .   S
    C186   O538      0.54508      .   S
    C85    O538      0.54508      .   S
    C186   O539      0.70847      .   S
    C180   O539      0.70847      .   S
    C3     O540      1.05761      .   S
    C237   O540      1.05761      .   S
    C146   O541      0.68717      .   S
    C145   O541      0.68717      .   S
    C146   O542      0.54352      .   S
    C46    O542      0.54352      .   S
    C145   O543      0.54570  1_455   S
    C45    O543      0.54570      .   S
    C216   O544      0.71844      .   S
    C215   O544      0.71844      .   S
    C216   O545      0.71099      .   S
    C217   O545      0.71099      .   S
    C215   O546      0.70775      .   S
    C214   O546      0.70775      .   S
    C179   O547      0.71867  1_455   S
    C180   O547      0.71867      .   S
    C179   O548      0.70771      .   S
    C178   O548      0.70771      .   S
    C180   O549      0.71089      .   S
    C181   O549      0.71089      .   S
    C99    O550      0.54590      .   S
    C217   O550      0.54590  1_455   S
    C217   O551      0.67997      .   S
    C218   O551      0.67997      .   S
    C214   O552      0.54474      .   S
    C98    O552      0.54474      .   S
    C214   O553      0.69303      .   S
    C213   O553      0.69303      .   S
    C75    O554      0.54813      .   S
    C173   O554      0.54813      .   S
    C74    O555      0.54948      .   S
    C173   O555      0.54948      .   S
    C80    O556      0.54478      .   S
    C178   O556      0.54478      .   S
    C178   O557      0.69190      .   S
    C177   O557      0.69190      .   S
    C237   O558      0.75246      .   S
    C173   O558      0.75246      .   S
    C237   O559      0.75311      .   S
    C175   O559      0.75311      .   S
    C237   O560      0.74488      .   S
    C170   O560      0.74488      .   S
    C181   O561      0.54592      .   S
    C81    O561      0.54592      .   S
    C181   O562      0.68810      .   S
    C182   O562      0.68810      .   S
    C78    O563      0.54918      .   S
    C175   O563      0.54918      .   S
    C173   O564      0.72874      .   S
    C238   O564      0.72874      .   S
    C68    O565      0.54806      .   S
    C170   O565      0.54806      .   S
    C79    O566      0.54898      .   S
    C175   O566      0.54898      .   S
    C69    O567      0.54772      .   S
    C170   O567      0.54772      .   S
    C218   O568      0.71182      .   S
    C213   O568      0.71182      .   S
    C218   O569      0.55187      .   S
    C100   O569      0.55187  1_655   S
    C175   O570      0.73007      .   S
    C239   O570      0.73007      .   S
    C170   O571      0.74464      .   S
    C236   O571      0.74464      .   S
    C213   O572      0.74796      .   S
    C212   O572      0.74796      .   S
    C177   O573      0.71045  1_455   S
    C182   O573      0.71045      .   S
    C177   O574      0.75142      .   S
    C176   O574      0.75142      .   S
    C182   O575      0.54404      .   S
    C82    O575      0.54404      .   S
    C238   O576      0.73686      .   S
    C174   O576      0.73686      .   S
    C238   O577      0.73011      .   S
    C171   O577      0.73011      .   S
    C77    O578      0.54912      .   S
    C174   O578      0.54912      .   S
    C257   O579      0.63826      .   S
    C176   O579      0.63826      .   S
    C71    O580      0.54896      .   S
    C171   O580      0.54896      .   S
    C212   O581      0.63778      .   S
    C269   O581      0.63778      .   S
    C212   O582      0.63912      .   S
    C264   O582      0.63912      .   S
    C239   O583      0.73920      .   S
    C174   O583      0.73920      .   S
    C239   O584      0.73215      .   S
    C172   O584      0.73215      .   S
    C236   O585      0.75250      .   S
    C171   O585      0.75250      .   S
    C236   O586      0.75108      .   S
    C172   O586      0.75108      .   S
    C72    O587      0.54888      .   S
    C172   O587      0.54888      .   S
    C0     O588      1.37852      .   S
    C1     O588      1.37852      .   S
    C4     O589      1.38211      .   S
    C5     O589      1.38211      .   S
