# CIF file generated by openbabel 2.4.90, see http://openbabel.sf.net
data_I
_chemical_name_common ''
_cell_length_a 12.365
_cell_length_b 20.163
_cell_length_c 20.18
_cell_angle_alpha 102.302
_cell_angle_beta 94.912
_cell_angle_gamma 94.696
_space_group_name_H-M_alt 'P 1'
_space_group_name_Hall 'P 1'
loop_
    _symmetry_equiv_pos_as_xyz
    x,y,z
loop_
    _atom_site_label
    _atom_site_type_symbol
    _atom_site_fract_x
    _atom_site_fract_y
    _atom_site_fract_z
    _atom_site_occupancy
    N0      N    0.04680   0.93463   0.48172   1.000
    N1      N    0.46000   0.80419   0.28419   1.000
    N2      N    0.30184   0.39825   0.30453   1.000
    N3      N    0.87966   0.61448   0.15534   1.000
    N4      N    0.80193   0.30471   0.39834   1.000
    N5      N    0.61557   0.78331   0.68565   1.000
    N6      N    0.37966   0.15538   0.61426   1.000
    N7      N    0.95982   0.28429   0.80419   1.000
    N8      N    0.54686   0.48173   0.93462   1.000
    N9      N    0.95818   0.40068   0.68900   1.000
    N10     N    0.45835   0.68888   0.40050   1.000
    N11     N    0.11574   0.68615   0.78335   1.000
    Zr12    Zr   0.45776   0.42673   0.66137   1.000
    O13     O    0.27445   0.41826   0.68044   1.000
    O14     O    0.64147   0.40840   0.67055   1.000
    O15     O    0.38940   0.40005   0.51874   1.000
    O16     O    0.49463   0.45443   0.76624   1.000
    O17     O    0.52644   0.56933   0.68607   1.000
    O18     O    0.42473   0.32258   0.63647   1.000
    Zr19    Zr   0.71023   0.04504   0.54295   1.000
    O20     O    0.80811   0.13400   0.64137   1.000
    O21     O    0.61198   0.95635   0.44470   1.000
    O22     O    0.74804   0.13984   0.48470   1.000
    O23     O    0.67171   0.94935   0.60054   1.000
    O24     O    0.58655   0.08561   0.56865   1.000
    O25     O    0.83589   0.00435   0.52047   1.000
    Zr26    Zr   0.21052   0.54306   0.04491   1.000
    O27     O    0.11207   0.44487   0.95622   1.000
    O28     O    0.30835   0.64139   0.13393   1.000
    O29     O    0.33605   0.52040   0.00426   1.000
    O30     O    0.08673   0.56893   0.08553   1.000
    O31     O    0.17192   0.60088   0.94934   1.000
    O32     O    0.24832   0.48464   0.13963   1.000
    Zr33    Zr   0.95790   0.66138   0.42658   1.000
    O34     O    0.88960   0.51881   0.39999   1.000
    O35     O    0.77459   0.68042   0.41808   1.000
    O36     O    0.92485   0.63653   0.32247   1.000
    O37     O    0.02659   0.68625   0.56927   1.000
    O38     O    0.14163   0.67048   0.40827   1.000
    O39     O    0.99472   0.76624   0.45433   1.000
loop_
    _geom_bond_atom_site_label_1
    _geom_bond_atom_site_label_2
    _geom_bond_distance
    _geom_bond_site_symmetry_2
    _ccdc_geom_bond_type
    Zr12   O13       2.32999      .   S
    N9     O13       3.91963  1_655   S
    Zr12   O14       2.32938      .   S
    N9     O14       3.92090      .   S
    Zr12   O15       2.85253      .   S
    N2     O15       4.35719      .   S
    Zr12   O16       2.07069      .   S
    N8     O16       3.32206      .   S
    Zr12   O17       2.85541      .   S
    N5     O17       4.36676      .   S
    Zr12   O18       2.05034      .   S
    N6     O18       3.29892      .   S
    Zr19   O20       2.51828      .   S
    N7     O20       4.15557      .   S
    Zr19   O21       2.51509  1_545   S
    N1     O21       4.14916      .   S
    Zr19   O22       2.48172      .   S
    N4     O22       4.10324      .   S
    Zr19   O23       2.48993  1_545   S
    N5     O23       4.11259      .   S
    Zr19   O24       1.85395      .   S
    N6     O24       3.13221      .   S
    Zr19   O25       1.86109      .   S
    N0     O25       3.14172  1_465   S
    Zr26   O27       2.51535  1_554   S
    N7     O27       4.14960  1_655   S
    Zr26   O28       2.51773      .   S
    N1     O28       4.15472      .   S
    Zr26   O29       1.86153      .   S
    N8     O29       3.14177  1_556   S
    Zr26   O30       1.85754      .   S
    N3     O30       3.13614  1_655   S
    Zr26   O31       2.48938  1_554   S
    N11    O31       4.11229      .   S
    Zr26   O32       2.48131      .   S
    N2     O32       4.10204      .   S
    Zr33   O34       2.85181      .   S
    N4     O34       4.35640      .   S
    Zr33   O35       2.32776      .   S
    N10    O35       3.91709      .   S
    Zr33   O36       2.05014      .   S
    N3     O36       3.29887      .   S
    Zr33   O37       2.85651  1_655   S
    N11    O37       4.36674      .   S
    Zr33   O38       2.33144  1_655   S
    N10    O38       3.92312      .   S
    Zr33   O39       2.07013      .   S
    N0     O39       3.32095  1_455   S
