# CIF file generated by openbabel 2.4.90, see http://openbabel.sf.net
data_I
_chemical_name_common 'VESTA_phase_1'
_cell_length_a 16.086
_cell_length_b 16.097
_cell_length_c 16.095
_cell_angle_alpha 90.221
_cell_angle_beta 89.991
_cell_angle_gamma 89.731
_space_group_name_H-M_alt 'P 1'
_space_group_name_Hall 'P 1'
loop_
    _symmetry_equiv_pos_as_xyz
    x,y,z
loop_
    _atom_site_label
    _atom_site_type_symbol
    _atom_site_fract_x
    _atom_site_fract_y
    _atom_site_fract_z
    _atom_site_occupancy
    Cu0     Cu   0.49996   0.24972   0.74996   1.000
    Cu1     Cu   0.99997   0.25020   0.74995   1.000
    Cu2     Cu   0.75033   0.50026   0.25026   1.000
    Cu3     Cu   0.74995   0.00009   0.24992   1.000
    Cu4     Cu   0.24990   0.74979   0.50007   1.000
    Cu5     Cu   0.25000   0.75010   0.00016   1.000
    Cu6     Cu   0.50009   0.75021   0.25003   1.000
    Cu7     Cu   0.00009   0.74955   0.24988   1.000
    Cu8     Cu   0.24967   0.50006   0.74970   1.000
    Cu9     Cu   0.25011   0.99984   0.75001   1.000
    Cu10    Cu   0.75010   0.25012   0.49989   1.000
    Cu11    Cu   0.75002   0.24973   0.00018   1.000
    H12     H    0.57672   0.07822   0.73302   1.000
    H13     H    0.92289   0.42161   0.73441   1.000
    H14     H    0.92376   0.07918   0.76693   1.000
    H15     H    0.57592   0.42079   0.76808   1.000
    H16     H    0.73339   0.57568   0.07861   1.000
    H17     H    0.73271   0.92433   0.42143   1.000
    H18     H    0.76662   0.92314   0.07889   1.000
    H19     H    0.76757   0.57746   0.42200   1.000
    H20     H    0.07819   0.73333   0.57669   1.000
    H21     H    0.42115   0.73254   0.92371   1.000
    H22     H    0.07839   0.76806   0.92405   1.000
    H23     H    0.42132   0.76558   0.57640   1.000
    H24     H    0.57843   0.07698   0.26643   1.000
    H25     H    0.92183   0.42318   0.26700   1.000
    H26     H    0.57923   0.42473   0.23331   1.000
    H27     H    0.92167   0.07587   0.23228   1.000
    H28     H    0.07659   0.23423   0.92094   1.000
    H29     H    0.42355   0.23174   0.57848   1.000
    H30     H    0.42349   0.26694   0.92112   1.000
    H31     H    0.07638   0.26660   0.57840   1.000
    H32     H    0.23421   0.57845   0.42314   1.000
    H33     H    0.23281   0.92198   0.07658   1.000
    H34     H    0.26852   0.57842   0.07594   1.000
    H35     H    0.26668   0.92075   0.42360   1.000
    H36     H    0.42343   0.92194   0.26710   1.000
    H37     H    0.07751   0.57781   0.26610   1.000
    H38     H    0.07626   0.92054   0.23296   1.000
    H39     H    0.42444   0.57889   0.23218   1.000
    H40     H    0.26674   0.42431   0.92075   1.000
    H41     H    0.26753   0.07568   0.57847   1.000
    H42     H    0.23367   0.07654   0.92111   1.000
    H43     H    0.23264   0.42288   0.57823   1.000
    H44     H    0.92178   0.26671   0.42325   1.000
    H45     H    0.57857   0.26745   0.07661   1.000
    H46     H    0.92166   0.23199   0.07642   1.000
    H47     H    0.57888   0.23462   0.42349   1.000
    H48     H    0.42140   0.92287   0.73378   1.000
    H49     H    0.07801   0.57698   0.73336   1.000
    H50     H    0.42100   0.57563   0.76680   1.000
    H51     H    0.07848   0.92394   0.76780   1.000
    H52     H    0.92368   0.76563   0.07836   1.000
    H53     H    0.57663   0.76858   0.42175   1.000
    H54     H    0.57670   0.73286   0.07885   1.000
    H55     H    0.92384   0.73341   0.42137   1.000
    H56     H    0.76599   0.42125   0.57697   1.000
    H57     H    0.76729   0.07826   0.92357   1.000
    H58     H    0.73199   0.42099   0.92470   1.000
    H59     H    0.73338   0.07900   0.57617   1.000
    H60     H    0.69112   0.99909   0.80929   1.000
    H61     H    0.80812   0.50039   0.81110   1.000
    H62     H    0.80972   0.00018   0.69048   1.000
    H63     H    0.68966   0.50000   0.69193   1.000
    H64     H    0.80974   0.68907   0.99939   1.000
    H65     H    0.80943   0.81031   0.50049   1.000
    H66     H    0.69071   0.80875   0.99983   1.000
    H67     H    0.69100   0.69229   0.50084   1.000
    H68     H    0.99937   0.80998   0.69139   1.000
    H69     H    0.50037   0.80837   0.80981   1.000
    H70     H    0.99907   0.69178   0.80993   1.000
    H71     H    0.50023   0.68910   0.69056   1.000
    H72     H    0.49944   0.19148   0.19046   1.000
    H73     H    0.00000   0.30834   0.19057   1.000
    H74     H    0.49994   0.31115   0.30940   1.000
    H75     H    0.00000   0.18990   0.30870   1.000
    H76     H    0.19072   0.31059   0.99988   1.000
    H77     H    0.30915   0.30800   0.49934   1.000
    H78     H    0.30960   0.19090   0.00000   1.000
    H79     H    0.19090   0.18974   0.49938   1.000
    H80     H    0.31085   0.49959   0.30846   1.000
    H81     H    0.30918   0.00000   0.19072   1.000
    H82     H    0.19233   0.49910   0.18951   1.000
    H83     H    0.19034   0.99954   0.30933   1.000
    C84     C    0.61071   0.10491   0.78536   1.000
    C85     C    0.88892   0.39482   0.78652   1.000
    C86     C    0.88975   0.10567   0.71455   1.000
    C87     C    0.60995   0.39432   0.71549   1.000
    C88     C    0.78561   0.60973   0.10525   1.000
    C89     C    0.78517   0.89011   0.39483   1.000
    C90     C    0.71443   0.88924   0.10554   1.000
    C91     C    0.71508   0.61138   0.39537   1.000
    C92     C    0.10483   0.78563   0.61073   1.000
    C93     C    0.39453   0.78492   0.88978   1.000
    C94     C    0.10492   0.71550   0.88993   1.000
    C95     C    0.39456   0.71354   0.61042   1.000
    C96     C    0.60517   0.11088   0.21429   1.000
    C97     C    0.89517   0.38913   0.21466   1.000
    C98     C    0.60579   0.39061   0.28550   1.000
    C99     C    0.89512   0.11001   0.28478   1.000
    C100    C    0.11051   0.28633   0.89425   1.000
    C101    C    0.38950   0.28437   0.60497   1.000
    C102    C    0.38959   0.21463   0.89443   1.000
    C103    C    0.11051   0.21427   0.60499   1.000
    C104    C    0.28632   0.60518   0.38912   1.000
    C105    C    0.28517   0.89524   0.11059   1.000
    C106    C    0.21588   0.60488   0.10990   1.000
    C107    C    0.21440   0.89418   0.38961   1.000
    C108    C    0.38944   0.89522   0.21478   1.000
    C109    C    0.11138   0.60457   0.21396   1.000
    C110    C    0.11028   0.89405   0.28533   1.000
    C111    C    0.39032   0.60540   0.28470   1.000
    C112    C    0.21450   0.39025   0.89416   1.000
    C113    C    0.21504   0.10988   0.60502   1.000
    C114    C    0.28580   0.11051   0.89442   1.000
    C115    C    0.28510   0.38889   0.60480   1.000
    C116    C    0.89517   0.21437   0.38924   1.000
    C117    C    0.60523   0.21505   0.11048   1.000
    C118    C    0.89509   0.28458   0.11046   1.000
    C119    C    0.60563   0.28668   0.38954   1.000
    C120    C    0.39465   0.88899   0.78593   1.000
    C121    C    0.10473   0.61100   0.78567   1.000
    C122    C    0.39440   0.60967   0.71453   1.000
    C123    C    0.10498   0.88987   0.71531   1.000
    C124    C    0.88970   0.71361   0.10512   1.000
    C125    C    0.61063   0.71592   0.39525   1.000
    C126    C    0.61059   0.78519   0.10552   1.000
    C127    C    0.88968   0.78572   0.39478   1.000
    C128    C    0.71387   0.39454   0.61099   1.000
    C129    C    0.71491   0.10493   0.88955   1.000
    C130    C    0.78452   0.39451   0.89055   1.000
    C131    C    0.78564   0.10558   0.61025   1.000
    C132    C    0.62609   0.22187   0.87402   1.000
    C133    C    0.67355   0.06203   0.82677   1.000
    C134    C    0.87378   0.27785   0.87430   1.000
    C135    C    0.82586   0.43751   0.82814   1.000
    C136    C    0.87403   0.22212   0.62597   1.000
    C137    C    0.82709   0.06289   0.67305   1.000
    C138    C    0.62584   0.27777   0.62616   1.000
    C139    C    0.67243   0.43722   0.67414   1.000
    C140    C    0.87405   0.62585   0.22202   1.000
    C141    C    0.82708   0.67204   0.06232   1.000
    C142    C    0.87391   0.87396   0.27812   1.000
    C143    C    0.82682   0.82747   0.43764   1.000
    C144    C    0.62595   0.87405   0.22237   1.000
    C145    C    0.67321   0.82640   0.06269   1.000
    C146    C    0.62621   0.62647   0.27886   1.000
    C147    C    0.67350   0.67450   0.43808   1.000
    C148    C    0.22141   0.87392   0.62621   1.000
    C149    C    0.06214   0.82723   0.67378   1.000
    C150    C    0.27766   0.87393   0.87423   1.000
    C151    C    0.43746   0.82609   0.82720   1.000
    C152    C    0.22166   0.62628   0.87406   1.000
    C153    C    0.06197   0.67408   0.82723   1.000
    C154    C    0.27765   0.62575   0.62596   1.000
    C155    C    0.43732   0.67203   0.67314   1.000
    C156    C    0.72208   0.12607   0.12597   1.000
    C157    C    0.56236   0.17380   0.17304   1.000
    C158    C    0.77835   0.37381   0.12614   1.000
    C159    C    0.93798   0.32603   0.17318   1.000
    C160    C    0.72259   0.37446   0.37410   1.000
    C161    C    0.56285   0.32821   0.32685   1.000
    C162    C    0.77860   0.12606   0.37375   1.000
    C163    C    0.93792   0.17269   0.32629   1.000
    C164    C    0.12589   0.37432   0.77744   1.000
    C165    C    0.17322   0.32778   0.93703   1.000
    C166    C    0.37385   0.37371   0.72150   1.000
    C167    C    0.32663   0.32577   0.56211   1.000
    C168    C    0.37413   0.12587   0.77751   1.000
    C169    C    0.32702   0.17334   0.93720   1.000
    C170    C    0.12619   0.12600   0.72163   1.000
    C171    C    0.17344   0.17255   0.56219   1.000
    C172    C    0.37417   0.72207   0.37382   1.000
    C173    C    0.32793   0.56244   0.32612   1.000
    C174    C    0.37392   0.77829   0.12610   1.000
    C175    C    0.32664   0.93812   0.17331   1.000
    C176    C    0.12637   0.72129   0.12593   1.000
    C177    C    0.17451   0.56193   0.17237   1.000
    C178    C    0.12596   0.77765   0.37398   1.000
    C179    C    0.17295   0.93685   0.32680   1.000
    N180    N    0.58846   0.18210   0.80703   1.000
    N181    N    0.91138   0.31769   0.80760   1.000
    N182    N    0.91174   0.18258   0.69296   1.000
    N183    N    0.58814   0.31733   0.69344   1.000
    N184    N    0.80709   0.58812   0.18243   1.000
    N185    N    0.80676   0.91185   0.31777   1.000
    N186    N    0.69276   0.91159   0.18260   1.000
    N187    N    0.69342   0.58887   0.31839   1.000
    N188    N    0.18183   0.80699   0.58844   1.000
    N189    N    0.31737   0.80686   0.91182   1.000
    N190    N    0.18206   0.69356   0.91184   1.000
    N191    N    0.31739   0.69241   0.58832   1.000
    N192    N    0.68234   0.08848   0.19275   1.000
    N193    N    0.81805   0.41151   0.19311   1.000
    N194    N    0.68293   0.41224   0.30719   1.000
    N195    N    0.81810   0.08819   0.30652   1.000
    N196    N    0.08833   0.30762   0.81710   1.000
    N197    N    0.41160   0.30638   0.68197   1.000
    N198    N    0.41165   0.19287   0.81720   1.000
    N199    N    0.08839   0.19295   0.68203   1.000
    N200    N    0.30748   0.68229   0.41148   1.000
    N201    N    0.30681   0.81800   0.08800   1.000
    N202    N    0.19381   0.68193   0.08821   1.000
    N203    N    0.19284   0.81729   0.41172   1.000
    N204    N    0.41160   0.81798   0.19319   1.000
    N205    N    0.08881   0.68162   0.19274   1.000
    N206    N    0.08827   0.81716   0.30696   1.000
    N207    N    0.41196   0.68248   0.30659   1.000
    N208    N    0.19280   0.41203   0.81700   1.000
    N209    N    0.19337   0.08810   0.68205   1.000
    N210    N    0.30738   0.08826   0.81727   1.000
    N211    N    0.30675   0.41136   0.68185   1.000
    N212    N    0.81815   0.19305   0.41147   1.000
    N213    N    0.68240   0.19318   0.08841   1.000
    N214    N    0.81797   0.30650   0.08845   1.000
    N215    N    0.68279   0.30781   0.41160   1.000
    N216    N    0.31748   0.91142   0.80746   1.000
    N217    N    0.18189   0.58861   0.80711   1.000
    N218    N    0.31725   0.58801   0.69294   1.000
    N219    N    0.18197   0.91172   0.69352   1.000
    N220    N    0.91172   0.69251   0.18229   1.000
    N221    N    0.58849   0.69390   0.31827   1.000
    N222    N    0.58844   0.80703   0.18262   1.000
    N223    N    0.91172   0.80700   0.31771   1.000
    N224    N    0.69253   0.31753   0.58848   1.000
    N225    N    0.69314   0.18212   0.91170   1.000
    N226    N    0.80653   0.31741   0.91214   1.000
    N227    N    0.80717   0.18249   0.58819   1.000
    O228    O    0.60084   0.29074   0.89910   1.000
    O229    O    0.89919   0.20908   0.89904   1.000
    O230    O    0.89899   0.29073   0.60098   1.000
    O231    O    0.60099   0.20907   0.60080   1.000
    O232    O    0.89915   0.60102   0.29080   1.000
    O233    O    0.89903   0.89888   0.20945   1.000
    O234    O    0.60082   0.89930   0.29117   1.000
    O235    O    0.60090   0.60089   0.21031   1.000
    O236    O    0.29004   0.89888   0.60095   1.000
    O237    O    0.20880   0.89926   0.89926   1.000
    O238    O    0.29047   0.60093   0.89904   1.000
    O239    O    0.20886   0.60096   0.60080   1.000
    O240    O    0.79095   0.10077   0.10087   1.000
    O241    O    0.70958   0.39917   0.10103   1.000
    O242    O    0.79139   0.39918   0.39921   1.000
    O243    O    0.70997   0.10112   0.39902   1.000
    O244    O    0.10076   0.39917   0.70869   1.000
    O245    O    0.39900   0.39912   0.79016   1.000
    O246    O    0.39922   0.10070   0.70867   1.000
    O247    O    0.10103   0.10112   0.79031   1.000
    O248    O    0.39895   0.79080   0.39916   1.000
    O249    O    0.39920   0.70945   0.10092   1.000
    O250    O    0.10075   0.78992   0.10097   1.000
    O251    O    0.10095   0.70909   0.39906   1.000
loop_
    _geom_bond_atom_site_label_1
    _geom_bond_atom_site_label_2
    _geom_bond_distance
    _geom_bond_site_symmetry_2
    _ccdc_geom_bond_type
    H78    C169      1.08491  1_554   S
    Cu5    N201      2.00657      .   S
    Cu5    N202      2.01260      .   S
    Cu5    N189      2.01237  1_554   S
    Cu5    N190      2.01075  1_554   S
    Cu11   N213      2.01186      .   S
    Cu11   N214      2.01197      .   S
    Cu11   N225      2.01188  1_554   S
    Cu11   N226      2.01034  1_554   S
    C141   C124      1.39285      .   S
    C141   C88       1.39275      .   S
    C141   H64       1.08642  1_554   S
    C145   C126      1.39275      .   S
    C145   C90       1.39268      .   S
    C145   H66       1.08652  1_554   S
    H34    C106      1.09169      .   S
    H46    C118      1.09203      .   S
    H33    C105      1.09216      .   S
    H45    C117      1.09211      .   S
    H52    C124      1.09206      .   S
    H16    C88       1.09209      .   S
    H54    C126      1.09208      .   S
    H18    C90       1.09205      .   S
    N201   C105      1.33850      .   S
    N201   C174      1.39529      .   S
    N202   C106      1.33609      .   S
    N202   C176      1.39193      .   S
    N213   C117      1.33633      .   S
    N213   C156      1.39233      .   S
    N214   C118      1.33632      .   S
    N214   C158      1.39164      .   S
    O240   C156      1.24515      .   S
    O249   C174      1.24486      .   S
    O250   C176      1.24521      .   S
    O241   C158      1.24523      .   S
    C124   N220      1.33633      .   S
    C88    N184      1.33638      .   S
    C126   N222      1.33633      .   S
    C90    N186      1.33582      .   S
    C106   C177      1.39334      .   S
    C118   C159      1.39272      .   S
    C117   C157      1.39275      .   S
    C105   C175      1.39273      .   S
    C176   N205      1.39207      .   S
    C156   N192      1.39228      .   S
    C174   N204      1.39285      .   S
    C158   N193      1.39167      .   S
    C177   H82       1.08642      .   S
    C177   C109      1.39286      .   S
    C157   H72       1.08644      .   S
    C157   C96       1.39269      .   S
    C159   H73       1.07365  1_655   S
    C159   C97       1.39274      .   S
    C175   H81       1.06992  1_565   S
    C175   C108      1.39282      .   S
    N220   C140      1.39235      .   S
    N220   Cu7       2.01312  1_655   S
    N184   C140      1.39226      .   S
    N184   Cu2       2.01236      .   S
    N186   C144      1.39246      .   S
    N186   Cu3       2.01255  1_565   S
    N222   C144      1.39207      .   S
    N222   Cu6       2.01317      .   S
    N205   C109      1.33646      .   S
    N205   Cu7       2.01371      .   S
    N192   C96       1.33647      .   S
    N192   Cu3       2.01245      .   S
    N193   C97       1.33644      .   S
    N193   Cu2       2.01202      .   S
    N204   C108      1.33644      .   S
    N204   Cu6       2.01178      .   S
    O233   C142      1.24519      .   S
    O235   C146      1.24536      .   S
    C109   H37       1.09158      .   S
    C96    H24       1.09211      .   S
    C97    H25       1.09209      .   S
    C108   H36       1.09205      .   S
    C140   O232      1.24512      .   S
    C144   O234      1.24488      .   S
    H39    C111      1.09207      .   S
    H27    C99       1.09197      .   S
    H38    C110      1.09200      .   S
    H26    C98       1.09148      .   S
    Cu7    N206      2.01182      .   S
    Cu7    N223      2.01183  1_455   S
    Cu3    N195      2.01191      .   S
    Cu3    N185      2.01123  1_545   S
    Cu6    N207      2.01224      .   S
    Cu6    N221      2.01141      .   S
    Cu2    N194      2.01148      .   S
    Cu2    N187      2.01253      .   S
    C142   N223      1.39170      .   S
    C142   N185      1.39168      .   S
    C146   N221      1.39179      .   S
    C146   N187      1.39176      .   S
    C111   N207      1.33627      .   S
    C111   C173      1.39277      .   S
    C99    N195      1.33632      .   S
    C99    C163      1.39277      .   S
    C110   N206      1.33642      .   S
    C110   C179      1.39274      .   S
    C98    N194      1.33651      .   S
    C98    C161      1.39302      .   S
    N195   C162      1.39180      .   S
    N207   C172      1.39179      .   S
    N206   C178      1.39185      .   S
    N194   C160      1.39220      .   S
    H80    C173      1.08644      .   S
    H75    C163      1.07575  1_455   S
    H83    C179      1.08640      .   S
    H74    C161      1.08643      .   S
    N223   C127      1.33638      .   S
    N185   C89       1.33629      .   S
    N221   C125      1.33626      .   S
    N187   C91       1.33628      .   S
    C173   C104      1.39268      .   S
    C163   C116      1.39281      .   S
    C179   C107      1.39272      .   S
    C161   C119      1.39274      .   S
    C162   O243      1.24532      .   S
    C162   N212      1.39189      .   S
    C172   O248      1.24509      .   S
    C172   N200      1.39197      .   S
    C178   O251      1.24506      .   S
    C178   N203      1.39193      .   S
    C160   O242      1.24483      .   S
    C160   N215      1.39166      .   S
    C104   N200      1.33653      .   S
    C104   H32       1.09205      .   S
    C116   N212      1.33637      .   S
    C116   H44       1.09202      .   S
    C119   N215      1.33620      .   S
    C119   H47       1.09210      .   S
    C107   N203      1.33638      .   S
    C107   H35       1.09150      .   S
    C127   H55       1.09205      .   S
    C127   C143      1.39279      .   S
    C89    H17       1.09203      .   S
    C89    C143      1.39277      .   S
    C125   H53       1.09201      .   S
    C125   C147      1.39284      .   S
    C91    H19       1.09205      .   S
    C91    C147      1.39283      .   S
    N212   Cu10      2.01181      .   S
    N200   Cu4       2.01248      .   S
    N215   Cu10      2.01381      .   S
    N203   Cu4       2.01194      .   S
    C143   H65       1.08652      .   S
    C147   H67       1.08639      .   S
    H77    C167      1.08638      .   S
    H79    C171      1.08638      .   S
    Cu10   N227      2.01261      .   S
    Cu10   N224      2.01155      .   S
    Cu4    N191      2.01264      .   S
    Cu4    N188      2.01233      .   S
    C167   C115      1.39244      .   S
    C167   C101      1.39282      .   S
    C171   C103      1.39284      .   S
    C171   C113      1.39286      .   S
    H59    C131      1.09202      .   S
    H23    C95       1.09250      .   S
    H20    C92       1.09200      .   S
    H56    C128      1.09206      .   S
    H43    C115      1.09170      .   S
    H31    C103      1.09200      .   S
    H41    C113      1.09198      .   S
    H29    C101      1.09200      .   S
    N227   C131      1.33640      .   S
    N227   C136      1.39182      .   S
    N191   C95       1.33645      .   S
    N191   C154      1.39231      .   S
    N188   C92       1.33639      .   S
    N188   C148      1.39185      .   S
    N224   C128      1.33655      .   S
    N224   C138      1.39194      .   S
    O231   C138      1.24508      .   S
    O239   C154      1.24536      .   S
    O236   C148      1.24534      .   S
    O230   C136      1.24513      .   S
    C115   N211      1.33712      .   S
    C101   N197      1.33631      .   S
    C103   N199      1.33642      .   S
    C113   N209      1.33636      .   S
    C131   C137      1.39273      .   S
    C95    C155      1.39274      .   S
    C92    C149      1.39276      .   S
    C128   C139      1.39272      .   S
    C154   N218      1.39236      .   S
    C136   N182      1.39184      .   S
    C138   N183      1.39172      .   S
    C148   N219      1.39196      .   S
    C137   H62       1.08643      .   S
    C137   C86       1.39277      .   S
    C155   H71       1.08642      .   S
    C155   C122      1.39270      .   S
    C149   H68       1.08641  1_455   S
    C149   C123      1.39279      .   S
    C139   H63       1.08643      .   S
    C139   C87       1.39275      .   S
    N211   C166      1.39160      .   S
    N211   Cu8       2.01230      .   S
    N197   C166      1.39158      .   S
    N197   Cu0       2.01147      .   S
    N199   C170      1.39161      .   S
    N199   Cu1       2.01174  1_455   S
    N209   C170      1.39156      .   S
    N209   Cu9       2.01208  1_545   S
    N218   C122      1.33631      .   S
    N218   Cu8       2.01119      .   S
    N182   C86       1.33640      .   S
    N182   Cu1       2.01184      .   S
    N183   C87       1.33629      .   S
    N183   Cu0       2.01132      .   S
    N219   C123      1.33625      .   S
    N219   Cu9       2.01120      .   S
    O246   C168      1.24481      .   S
    O244   C164      1.24496      .   S
    C122   H50       1.09203      .   S
    C86    H14       1.09204      .   S
    C123   H51       1.09099      .   S
    C87    H15       1.09201      .   S
    C166   O245      1.24516      .   S
    C170   O247      1.24531      .   S
    H12    C84       1.09207      .   S
    H49    C121      1.09194      .   S
    H48    C120      1.09207      .   S
    H13    C85       1.09216      .   S
    Cu8    N217      2.01242      .   S
    Cu8    N208      2.01038      .   S
    Cu1    N181      2.01225      .   S
    Cu1    N196      2.01199  1_655   S
    Cu0    N180      2.01204      .   S
    Cu0    N198      2.01149      .   S
    Cu9    N216      2.01266      .   S
    Cu9    N210      2.01173  1_565   S
    C164   N208      1.39136      .   S
    C164   N196      1.39148      .   S
    C168   N198      1.39147      .   S
    C168   N210      1.39216      .   S
    C84    N180      1.33647      .   S
    C84    C133      1.39281      .   S
    C121   N217      1.33646      .   S
    C121   C153      1.39279      .   S
    C120   N216      1.33649      .   S
    C120   C151      1.39269      .   S
    C85    N181      1.33638      .   S
    C85    C135      1.39277      .   S
    N180   C132      1.39186      .   S
    N217   C152      1.39176      .   S
    N216   C150      1.39211      .   S
    N181   C134      1.39222      .   S
    H60    C133      1.08649  1_565   S
    H69    C151      1.08645      .   S
    H70    C153      1.08647  1_655   S
    H61    C135      1.08648      .   S
    N208   C112      1.33771      .   S
    N196   C100      1.33753      .   S
    N198   C102      1.33756      .   S
    N210   C114      1.33644      .   S
    C133   C129      1.39273      .   S
    C151   C93       1.39279      .   S
    C153   C94       1.39273      .   S
    C135   C130      1.39274      .   S
    C132   O228      1.24469      .   S
    C132   N225      1.39190      .   S
    C152   O238      1.24512      .   S
    C152   N190      1.39169      .   S
    C150   O237      1.24492      .   S
    C150   N189      1.39221      .   S
    C134   O229      1.24507      .   S
    C134   N226      1.39184      .   S
    C129   N225      1.33643      .   S
    C129   H57       1.09209      .   S
    C93    N189      1.33642      .   S
    C93    H21       1.09204      .   S
    C94    N190      1.33634      .   S
    C94    H22       1.09202      .   S
    C130   N226      1.33632      .   S
    C130   H58       1.09204      .   S
    C112   H40       1.09206      .   S
    C112   C165      1.39270      .   S
    C100   H28       1.09207      .   S
    C100   C165      1.39277      .   S
    C114   H42       1.09209      .   S
    C114   C169      1.39203      .   S
    C102   H30       1.09212      .   S
    C102   C169      1.39211      .   S
    C165   H76       1.08653      .   S
