# CIF file generated by openbabel 2.4.90, see http://openbabel.sf.net
data_I
_chemical_name_common ''
_cell_length_a 13.828
_cell_length_b 15.638
_cell_length_c 15.641
_cell_angle_alpha 90.018
_cell_angle_beta 90.001
_cell_angle_gamma 89.957
_space_group_name_H-M_alt 'P 1'
_space_group_name_Hall 'P 1'
loop_
    _symmetry_equiv_pos_as_xyz
    x,y,z
loop_
    _atom_site_label
    _atom_site_type_symbol
    _atom_site_fract_x
    _atom_site_fract_y
    _atom_site_fract_z
    _atom_site_occupancy
    N0      N    0.50000   0.29129   0.70867   1.000
    N1      N    0.49998   0.70872   0.29127   1.000
    N2      N    0.00001   0.79132   0.79127   1.000
    N3      N    0.99997   0.20870   0.20869   1.000
    Zr4     Zr   0.13852   0.50003   0.49989   1.000
    O5      O    0.23836   0.56172   0.43822   1.000
    O6      O    0.09266   0.58189   0.58176   1.000
    O7      O    0.23836   0.43832   0.56161   1.000
    O8      O    0.09265   0.41817   0.41805   1.000
    Zr9     Zr   0.86146   0.49999   0.50007   1.000
    O10     O    0.90732   0.41812   0.41819   1.000
    O11     O    0.76162   0.56169   0.43835   1.000
    O12     O    0.76162   0.43829   0.56174   1.000
    O13     O    0.90733   0.58185   0.58191   1.000
    Zr14    Zr   0.36156   0.99998   0.99990   1.000
    O15     O    0.26170   0.06168   0.06161   1.000
    O16     O    0.40739   0.91812   0.08177   1.000
    O17     O    0.26170   0.93830   0.93822   1.000
    O18     O    0.40740   0.08184   0.91804   1.000
    Zr19    Zr   0.63840   0.00002   0.10000   1.000
    O20     O    0.59257   0.91817   0.14437   1.000
    O21     O    0.73827   0.06171   0.12420   1.000
loop_
    _geom_bond_atom_site_label_1
    _geom_bond_atom_site_label_2
    _geom_bond_distance
    _geom_bond_site_symmetry_2
    _ccdc_geom_bond_type
    Zr4    O5        1.94156      .   S
    N1     O5        4.86524      .   S
    Zr4    O6        1.91798      .   S
    N2     O6        4.80542      .   S
    Zr4    O7        1.94100      .   S
    N0     O7        4.86399      .   S
    Zr4    O8        1.91827      .   S
    N3     O8        4.80575  1_655   S
    Zr9    O10       1.91803      .   S
    N3     O10       4.80541      .   S
    Zr9    O11       1.94101      .   S
    N1     O11       4.86406      .   S
    Zr9    O12       1.94154      .   S
    N0     O12       4.86517      .   S
    Zr9    O13       1.91827      .   S
    N2     O13       4.80576  1_455   S
    Zr14   O15       1.94092  1_566   S
    N3     O15       4.86416  1_655   S
    Zr14   O16       1.91823  1_556   S
    N1     O16       4.80627      .   S
    Zr14   O17       1.94147      .   S
    N2     O17       4.86516      .   S
    Zr14   O18       1.91881  1_565   S
    N0     O18       4.80680      .   S
    Zr19   O20       1.58854  1_545   S
    N1     O20       4.20209      .   S
    Zr19   O21       1.72706      .   S
    N3     O21       4.48741      .   S
