# CIF file generated by openbabel 2.4.90, see http://openbabel.sf.net
data_I
_chemical_name_common ''
_cell_length_a 13.828
_cell_length_b 15.638
_cell_length_c 15.641
_cell_angle_alpha 90.018
_cell_angle_beta 90.001
_cell_angle_gamma 89.957
_space_group_name_H-M_alt 'P 1'
_space_group_name_Hall 'P 1'
loop_
    _symmetry_equiv_pos_as_xyz
    x,y,z
loop_
    _atom_site_label
    _atom_site_type_symbol
    _atom_site_fract_x
    _atom_site_fract_y
    _atom_site_fract_z
    _atom_site_occupancy
    C0      C    0.63840   0.00002   0.10000   1.000
    C1      C    0.13852   0.50003   0.49989   1.000
    C2      C    0.86146   0.49999   0.50007   1.000
    C3      C    0.36156   0.99998   0.99990   1.000
    C4      C    0.49997   0.40681   0.59317   1.000
    C5      C    0.50001   0.59319   0.40678   1.000
    C6      C    1.00000   0.90690   0.90685   1.000
    C7      C    0.00002   0.09311   0.09312   1.000
    C8      C    0.34406   0.23726   0.76280   1.000
    C9      C    0.34397   0.76289   0.23718   1.000
    C10     C    0.84405   0.73729   0.73717   1.000
    C11     C    0.84395   0.26286   0.26278   1.000
    C12     C    0.15593   0.26273   0.26279   1.000
    C13     C    0.15603   0.73715   0.73720   1.000
    C14     C    0.65592   0.76275   0.23716   1.000
    C15     C    0.65601   0.23712   0.76278   1.000
    C16     C    0.50003   0.16291   0.83706   1.000
    C17     C    0.50004   0.22899   0.77098   1.000
    C18     C    0.49999   0.35761   0.64236   1.000
    C19     C    0.49995   0.83710   0.16289   1.000
    C20     C    0.49994   0.77102   0.22897   1.000
    C21     C    0.49999   0.64239   0.35759   1.000
    C22     C    0.00005   0.66292   0.66289   1.000
    C23     C    0.00005   0.72902   0.72898   1.000
    C24     C    0.00002   0.85769   0.85764   1.000
    C25     C    0.99996   0.33709   0.33708   1.000
    C26     C    0.99996   0.27099   0.27098   1.000
    C27     C    1.00000   0.14233   0.14233   1.000
    C28     C    0.41292   0.26112   0.73888   1.000
    C29     C    0.41265   0.32572   0.67420   1.000
    C30     C    0.32073   0.35612   0.64385   1.000
    C31     C    0.41285   0.73895   0.26107   1.000
    C32     C    0.41262   0.67431   0.32567   1.000
    C33     C    0.32072   0.64394   0.35605   1.000
    C34     C    0.91291   0.76116   0.76108   1.000
    C35     C    0.91265   0.82578   0.82573   1.000
    C36     C    0.82071   0.85617   0.85611   1.000
    C37     C    0.91283   0.23892   0.23888   1.000
    C38     C    0.91260   0.17426   0.17426   1.000
    C39     C    0.82069   0.14390   0.14390   1.000
    C40     C    0.08706   0.23885   0.23888   1.000
    C41     C    0.08733   0.17424   0.17423   1.000
    C42     C    0.17927   0.14385   0.14385   1.000
    C43     C    0.08715   0.76109   0.76109   1.000
    C44     C    0.08738   0.82575   0.82571   1.000
    C45     C    0.17929   0.85611   0.85607   1.000
    C46     C    0.58706   0.73888   0.26107   1.000
    C47     C    0.58733   0.67429   0.32570   1.000
    C48     C    0.67925   0.64388   0.35610   1.000
    C49     C    0.58713   0.26105   0.73888   1.000
    C50     C    0.58736   0.32570   0.67428   1.000
    C51     C    0.67926   0.35607   0.64390   1.000
    C52     C    0.54865   0.07238   0.92779   1.000
    C53     C    0.58108   0.12894   0.87133   1.000
    C54     C    0.21426   0.42383   0.57605   1.000
    C55     C    0.30905   0.41705   0.58280   1.000
    C56     C    0.23331   0.32661   0.67345   1.000
    C57     C    0.16686   0.36873   0.63130   1.000
    C58     C    0.54863   0.92779   0.07241   1.000
    C59     C    0.58101   0.87130   0.12900   1.000
    C60     C    0.21431   0.57616   0.42374   1.000
    C61     C    0.30909   0.58287   0.41696   1.000
    C62     C    0.23328   0.67356   0.32650   1.000
    C63     C    0.16686   0.63143   0.36860   1.000
    C64     C    0.04866   0.57237   0.57210   1.000
    C65     C    0.08109   0.62895   0.62861   1.000
    C66     C    0.71417   0.92385   0.92390   1.000
    C67     C    0.80897   0.91709   0.91719   1.000
    C68     C    0.73332   0.82660   0.82647   1.000
    C69     C    0.66682   0.86870   0.86861   1.000
    C70     C    0.04864   0.42780   0.42759   1.000
    C71     C    0.08103   0.37130   0.37097   1.000
    C72     C    0.71420   0.07615   0.07624   1.000
    C73     C    0.80900   0.08283   0.08297   1.000
    C74     C    0.73327   0.17356   0.17350   1.000
    C75     C    0.66681   0.13144   0.13142   1.000
    C76     C    0.95132   0.42765   0.42783   1.000
    C77     C    0.91889   0.37106   0.37136   1.000
    C78     C    0.28581   0.07617   0.07600   1.000
    C79     C    0.19101   0.08293   0.08277   1.000
    C80     C    0.26666   0.17342   0.17348   1.000
    C81     C    0.33316   0.13132   0.13134   1.000
    C82     C    0.95133   0.57221   0.57237   1.000
    C83     C    0.91895   0.62871   0.62899   1.000
    C84     C    0.28578   0.92386   0.92372   1.000
    C85     C    0.19098   0.91718   0.91699   1.000
    C86     C    0.26671   0.82645   0.82648   1.000
    C87     C    0.33317   0.86856   0.86856   1.000
    C88     C    0.45133   0.92764   0.07210   1.000
    C89     C    0.41890   0.87107   0.12863   1.000
    C90     C    0.78572   0.57617   0.42391   1.000
    C91     C    0.69093   0.58297   0.41717   1.000
    C92     C    0.76667   0.67341   0.32652   1.000
    C93     C    0.83312   0.63130   0.36867   1.000
    C94     C    0.45135   0.07223   0.92750   1.000
    C95     C    0.41896   0.12871   0.87090   1.000
    C96     C    0.78567   0.42385   0.57622   1.000
    C97     C    0.69089   0.41713   0.58299   1.000
    C98     C    0.76670   0.32647   0.67340   1.000
    C99     C    0.83312   0.36860   0.63130   1.000
    O100    O    0.49998   0.92771   0.07226   1.000
    O101    O    0.43512   0.89935   0.10037   1.000
    O102    O    0.40645   0.96381   0.03600   1.000
    O103    O    0.56482   0.89954   0.10071   1.000
    O104    O    0.59351   0.96390   0.08621   1.000
    O105    O    0.23841   0.07955   0.07939   1.000
    O106    O    0.30949   0.10375   0.10367   1.000
    O107    O    0.32369   0.03808   0.03795   1.000
    O108    O    0.76160   0.07949   0.07961   1.000
    O109    O    0.69050   0.10380   0.10383   1.000
    O110    O    0.67630   0.03808   0.08812   1.000
    O111    O    0.18514   0.11339   0.11331   1.000
    O112    O    0.81484   0.11336   0.11344   1.000
    O113    O    0.00001   0.11772   0.11773   1.000
    O114    O    0.45942   0.85409   0.14576   1.000
    O115    O    0.54048   0.85420   0.14595   1.000
    O116    O    0.29991   0.15237   0.15241   1.000
    O117    O    0.70004   0.15250   0.15246   1.000
    O118    O    0.04367   0.15828   0.15828   1.000
    O119    O    0.95630   0.15829   0.15830   1.000
    O120    O    0.22297   0.15864   0.15867   1.000
    O121    O    0.13330   0.15904   0.15904   1.000
    O122    O    0.77698   0.15873   0.15870   1.000
    O123    O    0.86664   0.15908   0.15908   1.000
    O124    O    0.49994   0.80406   0.19593   1.000
    O125    O    0.08720   0.20654   0.20656   1.000
    O126    O    0.91271   0.20659   0.20657   1.000
    O127    O    0.54350   0.75495   0.24502   1.000
    O128    O    0.45639   0.75498   0.24502   1.000
    O129    O    0.62149   0.75082   0.24912   1.000
    O130    O    0.37841   0.75092   0.24913   1.000
    O131    O    0.12150   0.25079   0.25084   1.000
    O132    O    0.04351   0.25492   0.25493   1.000
    O133    O    0.87839   0.25089   0.25083   1.000
    O134    O    0.95639   0.25496   0.25493   1.000
    O135    O    0.58719   0.70658   0.29339   1.000
    O136    O    0.41273   0.70663   0.29337   1.000
    O137    O    0.99996   0.30404   0.30403   1.000
    O138    O    0.36667   0.65913   0.34086   1.000
    O139    O    0.45630   0.65835   0.34163   1.000
    O140    O    0.63329   0.65908   0.34090   1.000
    O141    O    0.54366   0.65834   0.34165   1.000
    O142    O    0.27700   0.65875   0.34128   1.000
    O143    O    0.20007   0.65249   0.34755   1.000
    O144    O    0.72296   0.65864   0.34131   1.000
    O145    O    0.79989   0.65235   0.34760   1.000
    O146    O    0.04050   0.35420   0.35403   1.000
    O147    O    0.95942   0.35407   0.35422   1.000
    O148    O    0.31491   0.61341   0.38651   1.000
    O149    O    0.68509   0.61342   0.38664   1.000
    O150    O    0.50000   0.61779   0.38219   1.000
    O151    O    0.19058   0.60379   0.39617   1.000
    O152    O    0.80942   0.60374   0.39629   1.000
    O153    O    0.06484   0.39955   0.39928   1.000
    O154    O    0.93510   0.39935   0.39960   1.000
    O155    O    0.26170   0.57952   0.42035   1.000
    O156    O    0.73833   0.57957   0.42054   1.000
    O157    O    0.17641   0.53809   0.46182   1.000
    O158    O    0.82359   0.53808   0.46199   1.000
    O159    O    0.99998   0.42772   0.42771   1.000
    O160    O    0.09358   0.46392   0.46374   1.000
    O161    O    0.90639   0.46382   0.46395   1.000
    O162    O    0.09359   0.53620   0.53600   1.000
    O163    O    0.17639   0.46193   0.53797   1.000
    O164    O    0.90639   0.53610   0.53622   1.000
    O165    O    0.82356   0.46192   0.53815   1.000
    O166    O    1.00000   0.57229   0.57224   1.000
    O167    O    0.06488   0.60066   0.60036   1.000
    O168    O    0.93514   0.60046   0.60068   1.000
    O169    O    0.26165   0.42044   0.57943   1.000
    O170    O    0.19056   0.39628   0.60368   1.000
    O171    O    0.73828   0.42049   0.57961   1.000
    O172    O    0.80940   0.39623   0.60376   1.000
    O173    O    0.31489   0.38658   0.61333   1.000
    O174    O    0.68507   0.38660   0.61345   1.000
    O175    O    0.49998   0.38221   0.61777   1.000
    O176    O    0.04057   0.64594   0.64575   1.000
    O177    O    0.95950   0.64582   0.64594   1.000
    O178    O    0.79991   0.34753   0.65235   1.000
    O179    O    0.20009   0.34767   0.65238   1.000
    O180    O    0.45632   0.34167   0.65828   1.000
    O181    O    0.54368   0.34165   0.65832   1.000
    O182    O    0.27702   0.34136   0.65865   1.000
    O183    O    0.36669   0.34092   0.65903   1.000
    O184    O    0.72298   0.34127   0.65865   1.000
    O185    O    0.63331   0.34088   0.65909   1.000
    O186    O    0.00005   0.69597   0.69594   1.000
    O187    O    0.41279   0.29342   0.70654   1.000
    O188    O    0.58725   0.29337   0.70658   1.000
    O189    O    0.95648   0.74509   0.74503   1.000
    O190    O    0.04360   0.74506   0.74504   1.000
    O191    O    0.87848   0.74923   0.74913   1.000
    O192    O    0.12159   0.74912   0.74915   1.000
    O193    O    0.62157   0.24908   0.75083   1.000
    O194    O    0.54358   0.24502   0.75493   1.000
    O195    O    0.37849   0.24919   0.75084   1.000
    O196    O    0.45648   0.24505   0.75493   1.000
    O197    O    0.91278   0.79347   0.79341   1.000
    O198    O    0.08726   0.79342   0.79340   1.000
    O199    O    0.50003   0.19595   0.80402   1.000
    O200    O    0.13334   0.84093   0.84089   1.000
    O201    O    0.04370   0.84172   0.84168   1.000
    O202    O    0.86668   0.84097   0.84092   1.000
    O203    O    0.95633   0.84173   0.84169   1.000
    O204    O    0.77701   0.84138   0.84129   1.000
    O205    O    0.70007   0.84765   0.84754   1.000
    O206    O    0.22300   0.84128   0.84128   1.000
    O207    O    0.29994   0.84750   0.84752   1.000
    O208    O    0.45950   0.14581   0.85398   1.000
    O209    O    0.54055   0.14592   0.85420   1.000
    O210    O    0.18514   0.88665   0.88653   1.000
    O211    O    0.81484   0.88663   0.88665   1.000
    O212    O    0.00001   0.88229   0.88225   1.000
    O213    O    0.30947   0.89621   0.89614   1.000
    O214    O    0.69049   0.89627   0.89626   1.000
    O215    O    0.43516   0.10047   0.89920   1.000
    O216    O    0.56486   0.10066   0.89956   1.000
    O217    O    0.23838   0.92052   0.92036   1.000
    O218    O    0.76157   0.92047   0.92055   1.000
    O219    O    0.32367   0.96192   0.96181   1.000
    O220    O    0.50000   0.07230   0.92765   1.000
    O221    O    0.40646   0.03610   0.96370   1.000
loop_
    _geom_bond_atom_site_label_1
    _geom_bond_atom_site_label_2
    _geom_bond_distance
    _geom_bond_site_symmetry_2
    _ccdc_geom_bond_type
    C88    O100      0.67269      .   S
    C58    O100      0.67269      .   S
    C88    O101      0.66455      .   S
    C89    O101      0.66455      .   S
    C88    O102      1.01177      .   S
    C3     O102      1.01177  1_556   S
    C58    O103      0.66411      .   S
    C59    O103      0.66411      .   S
    C58    O104      0.86674      .   S
    C0     O104      0.86674  1_545   S
    C78    O105      0.65966      .   S
    C79    O105      0.65966      .   S
    C78    O106      0.69318      .   S
    C81    O106      0.69318      .   S
    C78    O107      0.99132      .   S
    C3     O107      0.99132  1_566   S
    C72    O108      0.65962      .   S
    C73    O108      0.65962      .   S
    C72    O109      0.69296      .   S
    C75    O109      0.69296      .   S
    C72    O110      0.81490      .   S
    C0     O110      0.81490      .   S
    C79    O111      0.67932      .   S
    C42    O111      0.67932      .   S
    C73    O112      0.67938      .   S
    C39    O112      0.67938      .   S
    C7     O113      0.54415      .   S
    C27    O113      0.54415  1_655   S
    C89    O114      0.67537      .   S
    C19    O114      0.67537      .   S
    C59    O115      0.67542      .   S
    C19    O115      0.67542      .   S
    C81    O116      0.65427      .   S
    C80    O116      0.65427      .   S
    C75    O117      0.65425      .   S
    C74    O117      0.65425      .   S
    C27    O118      0.69950  1_655   S
    C41    O118      0.69950      .   S
    C27    O119      0.69969      .   S
    C38    O119      0.69969      .   S
    C42    O120      0.68730      .   S
    C80    O120      0.68730      .   S
    C42    O121      0.71882      .   S
    C41    O121      0.71882      .   S
    C39    O122      0.68732      .   S
    C74    O122      0.68732      .   S
    C39    O123      0.71884      .   S
    C38    O123      0.71884      .   S
    C19    O124      0.73091      .   S
    C20    O124      0.73091      .   S
    C41    O125      0.71465      .   S
    C40    O125      0.71465      .   S
    C38    O126      0.71473      .   S
    C37    O126      0.71473      .   S
    C20    O127      0.69910      .   S
    C46    O127      0.69910      .   S
    C20    O128      0.69913      .   S
    C31    O128      0.69913      .   S
    C14    O129      0.54463      .   S
    C46    O129      0.54463      .   S
    C9     O130      0.54463      .   S
    C31    O130      0.54463      .   S
    C40    O131      0.54461      .   S
    C12    O131      0.54461      .   S
    C40    O132      0.69903      .   S
    C26    O132      0.69903  1_655   S
    C37    O133      0.54464      .   S
    C11    O133      0.54464      .   S
    C37    O134      0.69927      .   S
    C26    O134      0.69927      .   S
    C46    O135      0.71466      .   S
    C47    O135      0.71466      .   S
    C31    O136      0.71473      .   S
    C32    O136      0.71473      .   S
    C26    O137      0.73086      .   S
    C25    O137      0.73086      .   S
    C32    O138      0.71888      .   S
    C33    O138      0.71888      .   S
    C32    O139      0.69952      .   S
    C21    O139      0.69952      .   S
    C47    O140      0.71887      .   S
    C48    O140      0.71887      .   S
    C47    O141      0.69951      .   S
    C21    O141      0.69951      .   S
    C62    O142      0.68731      .   S
    C33    O142      0.68731      .   S
    C62    O143      0.65428      .   S
    C63    O143      0.65428      .   S
    C92    O144      0.68729      .   S
    C48    O144      0.68729      .   S
    C92    O145      0.65425      .   S
    C93    O145      0.65425      .   S
    C25    O146      0.67538  1_655   S
    C71    O146      0.67538      .   S
    C25    O147      0.67556      .   S
    C77    O147      0.67556      .   S
    C33    O148      0.67937      .   S
    C61    O148      0.67937      .   S
    C48    O149      0.67934      .   S
    C91    O149      0.67934      .   S
    C21    O150      0.54412      .   S
    C5     O150      0.54412      .   S
    C63    O151      0.69298      .   S
    C60    O151      0.69298      .   S
    C93    O152      0.69291      .   S
    C90    O152      0.69291      .   S
    C71    O153      0.66415      .   S
    C70    O153      0.66415      .   S
    C77    O154      0.66415      .   S
    C76    O154      0.66415      .   S
    C61    O155      0.65963      .   S
    C60    O155      0.65963      .   S
    C91    O156      0.65962      .   S
    C90    O156      0.65962      .   S
    C60    O157      0.99208      .   S
    C1     O157      0.99208      .   S
    C90    O158      0.99174      .   S
    C2     O158      0.99174      .   S
    C70    O159      0.67292  1_455   S
    C76    O159      0.67292      .   S
    C70    O160      1.01249      .   S
    C1     O160      1.01249      .   S
    C76    O161      1.01213      .   S
    C2     O161      1.01213      .   S
    C1     O162      1.01200      .   S
    C64    O162      1.01200      .   S
    C1     O163      0.99177      .   S
    C54    O163      0.99177      .   S
    C2     O164      1.01248      .   S
    C82    O164      1.01248      .   S
    C2     O165      0.99210      .   S
    C96    O165      0.99210      .   S
    C64    O166      0.67293  1_455   S
    C82    O166      0.67293      .   S
    C64    O167      0.66434      .   S
    C65    O167      0.66434      .   S
    C82    O168      0.66416      .   S
    C83    O168      0.66416      .   S
    C54    O169      0.65962      .   S
    C55    O169      0.65962      .   S
    C54    O170      0.69287      .   S
    C57    O170      0.69287      .   S
    C96    O171      0.65964      .   S
    C97    O171      0.65964      .   S
    C96    O172      0.69260      .   S
    C99    O172      0.69260      .   S
    C55    O173      0.67935      .   S
    C30    O173      0.67935      .   S
    C97    O174      0.67938      .   S
    C51    O174      0.67938      .   S
    C4     O175      0.54410      .   S
    C18    O175      0.54410      .   S
    C65    O176      0.67538      .   S
    C22    O176      0.67538      .   S
    C83    O177      0.67560      .   S
    C22    O177      0.67560  1_455   S
    C99    O178      0.65430      .   S
    C98    O178      0.65430      .   S
    C57    O179      0.65430      .   S
    C56    O179      0.65430      .   S
    C18    O180      0.69936      .   S
    C29    O180      0.69936      .   S
    C18    O181      0.69951      .   S
    C50    O181      0.69951      .   S
    C30    O182      0.68729      .   S
    C56    O182      0.68729      .   S
    C30    O183      0.71871      .   S
    C29    O183      0.71871      .   S
    C51    O184      0.68714      .   S
    C98    O184      0.68714      .   S
    C51    O185      0.71887      .   S
    C50    O185      0.71887      .   S
    C22    O186      0.73080      .   S
    C23    O186      0.73080      .   S
    C29    O187      0.71497      .   S
    C28    O187      0.71497      .   S
    C50    O188      0.71476      .   S
    C49    O188      0.71476      .   S
    C23    O189      0.69923  1_455   S
    C34    O189      0.69923      .   S
    C23    O190      0.69909      .   S
    C43    O190      0.69909      .   S
    C10    O191      0.54460      .   S
    C34    O191      0.54460      .   S
    C13    O192      0.54462      .   S
    C43    O192      0.54462      .   S
    C49    O193      0.54465      .   S
    C15    O193      0.54465      .   S
    C49    O194      0.69913      .   S
    C17    O194      0.69913      .   S
    C28    O195      0.54464      .   S
    C8     O195      0.54464      .   S
    C28    O196      0.69908      .   S
    C17    O196      0.69908      .   S
    C34    O197      0.71465      .   S
    C35    O197      0.71465      .   S
    C43    O198      0.71473      .   S
    C44    O198      0.71473      .   S
    C17    O199      0.73089      .   S
    C16    O199      0.73089      .   S
    C44    O200      0.71885      .   S
    C45    O200      0.71885      .   S
    C44    O201      0.69951      .   S
    C24    O201      0.69951      .   S
    C35    O202      0.71883      .   S
    C36    O202      0.71883      .   S
    C35    O203      0.69972      .   S
    C24    O203      0.69972  1_455   S
    C68    O204      0.68730      .   S
    C36    O204      0.68730      .   S
    C68    O205      0.65427      .   S
    C69    O205      0.65427      .   S
    C86    O206      0.68731      .   S
    C45    O206      0.68731      .   S
    C86    O207      0.65426      .   S
    C87    O207      0.65426      .   S
    C16    O208      0.67526      .   S
    C95    O208      0.67526      .   S
    C16    O209      0.67540      .   S
    C53    O209      0.67540      .   S
    C45    O210      0.67932      .   S
    C85    O210      0.67932      .   S
    C36    O211      0.67932      .   S
    C67    O211      0.67932      .   S
    C24    O212      0.54415      .   S
    C6     O212      0.54415  1_655   S
    C87    O213      0.69290      .   S
    C84    O213      0.69290      .   S
    C69    O214      0.69292      .   S
    C66    O214      0.69292      .   S
    C95    O215      0.66415      .   S
    C94    O215      0.66415      .   S
    C53    O216      0.66418      .   S
    C52    O216      0.66418      .   S
    C85    O217      0.65962      .   S
    C84    O217      0.65962      .   S
    C67    O218      0.65962      .   S
    C66    O218      0.65962      .   S
    C84    O219      0.99193      .   S
    C3     O219      0.99193      .   S
    C94    O220      0.67269      .   S
    C52    O220      0.67269      .   S
    C94    O221      1.01282      .   S
    C3     O221      1.01282  1_565   S
