# CIF file generated by openbabel 2.4.90, see http://openbabel.sf.net
data_I
_chemical_name_common ''
_cell_length_a 12.318
_cell_length_b 21.045
_cell_length_c 16.643
_cell_angle_alpha 71.59
_cell_angle_beta 83.891
_cell_angle_gamma 90.005
_space_group_name_H-M_alt 'P 1'
_space_group_name_Hall 'P 1'
loop_
    _symmetry_equiv_pos_as_xyz
    x,y,z
loop_
    _atom_site_label
    _atom_site_type_symbol
    _atom_site_fract_x
    _atom_site_fract_y
    _atom_site_fract_z
    _atom_site_occupancy
    C0      C    0.72159   0.92165   0.68272   1.000
    O1      O    0.09653   0.13306   0.86856   1.000
    O2      O    0.09653   0.63306   0.86856   1.000
    O3      O    0.59654   0.13306   0.86856   1.000
    C4      C    0.01398   0.10095   0.85882   1.000
    C5      C    0.01398   0.60095   0.85882   1.000
    C6      C    0.51399   0.10095   0.85882   1.000
    C7      C    0.51400   0.60095   0.85882   1.000
    C8      C    0.08960   0.17770   0.53564   1.000
    C9      C    0.08961   0.67770   0.53564   1.000
    C10     C    0.58962   0.17770   0.53564   1.000
    C11     C    0.58962   0.67770   0.53564   1.000
    C12     C    0.47153   0.23703   0.68270   1.000
    C13     C    0.47154   0.73703   0.68270   1.000
    C14     C    0.97155   0.23703   0.68274   1.000
    C15     C    0.97155   0.73703   0.68270   1.000
    O16     O    0.40350   0.36693   0.13143   1.000
    O17     O    0.40350   0.86693   0.13143   1.000
    O18     O    0.90351   0.36693   0.13143   1.000
    O19     O    0.90351   0.86693   0.13143   1.000
    O20     O    0.03230   0.44734   0.07710   1.000
    C21     C    0.16045   0.44563   0.46448   1.000
    C22     C    0.16045   0.94563   0.46448   1.000
    C23     C    0.66047   0.44563   0.46448   1.000
    C24     C    0.66047   0.94563   0.46448   1.000
    C25     C    0.23599   0.03004   0.14134   1.000
    C26     C    0.23599   0.53004   0.14134   1.000
    C27     C    0.73600   0.03004   0.14134   1.000
    C28     C    0.73601   0.53004   0.14134   1.000
    C29     C    0.27845   0.07834   0.31728   1.000
    C30     C    0.27846   0.57834   0.31728   1.000
    C31     C    0.77847   0.07834   0.31728   1.000
    C32     C    0.77847   0.57834   0.31728   1.000
    C33     C    0.48605   0.39905   0.14117   1.000
    C34     C    0.48605   0.89905   0.14117   1.000
    C35     C    0.98606   0.39905   0.14117   1.000
    C36     C    0.98606   0.89905   0.14117   1.000
    C37     C    0.41042   0.32230   0.46436   1.000
    C38     C    0.41042   0.82230   0.46436   1.000
    C39     C    0.91043   0.32230   0.46436   1.000
    C40     C    0.91044   0.82230   0.46436   1.000
    C41     C    0.02849   0.26296   0.31725   1.000
    C42     C    0.02849   0.76296   0.31725   1.000
    C43     C    0.52850   0.26296   0.31725   1.000
    C44     C    0.52851   0.76296   0.31725   1.000
    C45     C    0.33957   0.05437   0.53551   1.000
    C46     C    0.33957   0.55437   0.53551   1.000
    C47     C    0.83958   0.05437   0.53551   1.000
    C48     C    0.83959   0.55437   0.53551   1.000
    C49     C    0.26404   0.46996   0.85860   1.000
    C50     C    0.26404   0.96995   0.85860   1.000
    C51     C    0.76405   0.46996   0.85860   1.000
    C52     C    0.76405   0.96995   0.85860   1.000
    C53     C    0.22157   0.42165   0.68272   1.000
    C54     C    0.22157   0.92165   0.68272   1.000
    C55     C    0.72158   0.42165   0.68272   1.000
    O56     O    0.59655   0.63306   0.86856   1.000
    O57     O    0.46773   0.05265   0.92290   1.000
    O58     O    0.46773   0.55265   0.92290   1.000
    O59     O    0.96774   0.05265   0.92290   1.000
    O60     O    0.96774   0.55265   0.92290   1.000
    O61     O    0.10194   0.14458   0.48311   1.000
    O62     O    0.10195   0.64458   0.48311   1.000
    O63     O    0.60196   0.14458   0.48311   1.000
    O64     O    0.60196   0.64458   0.48311   1.000
    O65     O    0.13956   0.23364   0.52091   1.000
    O66     O    0.13956   0.73364   0.52091   1.000
    O67     O    0.63958   0.23364   0.52091   1.000
    O68     O    0.63958   0.73364   0.52091   1.000
    O69     O    0.03253   0.28926   0.66698   1.000
    O70     O    0.03253   0.78926   0.66698   1.000
    O71     O    0.53254   0.28926   0.66698   1.000
    O72     O    0.53254   0.78926   0.66698   1.000
    O73     O    0.36848   0.23436   0.68747   1.000
    O74     O    0.36848   0.73436   0.68747   1.000
    O75     O    0.86849   0.23436   0.68747   1.000
    O76     O    0.86849   0.73436   0.68747   1.000
    O77     O    0.11064   0.49428   0.47916   1.000
    O78     O    0.11064   0.99428   0.47916   1.000
    O79     O    0.61065   0.49428   0.47916   1.000
    O80     O    0.61065   0.99428   0.47916   1.000
    O81     O    0.14802   0.38629   0.51705   1.000
    O82     O    0.14802   0.88628   0.51705   1.000
    O83     O    0.64803   0.38629   0.51705   1.000
    O84     O    0.64803   0.88628   0.51705   1.000
    O85     O    0.28231   0.01383   0.07724   1.000
    O86     O    0.28232   0.51383   0.07724   1.000
    O87     O    0.78233   0.01383   0.07724   1.000
    O88     O    0.78233   0.51383   0.07724   1.000
    O89     O    0.15326   0.06687   0.13164   1.000
    O90     O    0.15326   0.56687   0.13164   1.000
    O91     O    0.65328   0.06687   0.13164   1.000
    O92     O    0.65328   0.56687   0.13164   1.000
    O93     O    0.21742   0.12269   0.33304   1.000
    O94     O    0.21743   0.62269   0.33304   1.000
    O95     O    0.71744   0.12269   0.33304   1.000
    O96     O    0.71744   0.62269   0.33304   1.000
    O97     O    0.38150   0.07806   0.31259   1.000
    O98     O    0.38150   0.57806   0.31259   1.000
    O99     O    0.88151   0.07806   0.31259   1.000
    O100    O    0.88152   0.57806   0.31259   1.000
    O101    O    0.03230   0.94734   0.07710   1.000
    O102    O    0.53231   0.44734   0.07710   1.000
    O103    O    0.53231   0.94734   0.07710   1.000
    O104    O    0.39808   0.35541   0.51689   1.000
    O105    O    0.39808   0.85541   0.51689   1.000
    O106    O    0.89810   0.35541   0.51689   1.000
    O107    O    0.89810   0.85541   0.51689   1.000
    O108    O    0.36046   0.26636   0.47909   1.000
    O109    O    0.36046   0.76635   0.47909   1.000
    O110    O    0.86048   0.26636   0.47909   1.000
    O111    O    0.86048   0.76635   0.47909   1.000
    O112    O    0.46749   0.21073   0.33301   1.000
    O113    O    0.46750   0.71073   0.33301   1.000
    O114    O    0.96751   0.21073   0.33301   1.000
    O115    O    0.96751   0.71073   0.33301   1.000
    O116    O    0.13154   0.26564   0.31253   1.000
    O117    O    0.13155   0.76563   0.31253   1.000
    O118    O    0.63156   0.26564   0.31253   1.000
    O119    O    0.63156   0.76563   0.31253   1.000
    O120    O    0.38939   0.00572   0.52084   1.000
    O121    O    0.38939   0.50572   0.52084   1.000
    O122    O    0.88940   0.00572   0.52084   1.000
    O123    O    0.88941   0.50572   0.52084   1.000
    O124    O    0.35201   0.11371   0.48295   1.000
    O125    O    0.35201   0.61371   0.48295   1.000
    O126    O    0.85202   0.11371   0.48295   1.000
    O127    O    0.85202   0.61371   0.48295   1.000
    O128    O    0.21771   0.48616   0.92276   1.000
    O129    O    0.21771   0.98616   0.92276   1.000
    O130    O    0.71772   0.48616   0.92276   1.000
    O131    O    0.71773   0.98616   0.92276   1.000
    O132    O    0.34676   0.43312   0.86835   1.000
    O133    O    0.34677   0.93312   0.86835   1.000
    O134    O    0.84678   0.43312   0.86835   1.000
    O135    O    0.84678   0.93312   0.86835   1.000
    O136    O    0.28260   0.37731   0.66696   1.000
    O137    O    0.28260   0.87731   0.66696   1.000
    O138    O    0.78261   0.37731   0.66696   1.000
    O139    O    0.78262   0.87731   0.66696   1.000
    O140    O    0.11852   0.42194   0.68740   1.000
    O141    O    0.11853   0.92194   0.68740   1.000
    O142    O    0.61854   0.42194   0.68740   1.000
    O143    O    0.61854   0.92194   0.68740   1.000
loop_
    _geom_bond_atom_site_label_1
    _geom_bond_atom_site_label_2
    _geom_bond_distance
    _geom_bond_site_symmetry_2
    _ccdc_geom_bond_type
    O20    C35       1.29636  1_455   S
    O101   C36       1.29636  1_455   S
    O102   C33       1.29648      .   S
    O103   C34       1.29648      .   S
    O88    C28       1.29629      .   S
    O87    C27       1.29629      .   S
    O86    C26       1.29629      .   S
    O85    C25       1.29629      .   S
    O16    C33       1.27327      .   S
    O17    C34       1.27328      .   S
    O18    C35       1.27327      .   S
    O19    C36       1.27327      .   S
    O92    C28       1.27334      .   S
    O89    C25       1.27334      .   S
    O90    C26       1.27334      .   S
    O91    C27       1.27334      .   S
    O116   C41       1.26366      .   S
    O117   C42       1.26366      .   S
    O118   C43       1.26366      .   S
    O119   C44       1.26366      .   S
    O100   C32       1.26353      .   S
    O99    C31       1.26353      .   S
    O98    C30       1.26353      .   S
    O97    C29       1.26353      .   S
    C41    O114      1.27169  1_455   S
    C44    O113      1.27188      .   S
    C43    O112      1.27189      .   S
    C42    O115      1.27168  1_455   S
    C32    O96       1.27187      .   S
    C31    O95       1.27187      .   S
    C30    O94       1.27187      .   S
    C29    O93       1.27187      .   S
    C39    O110      1.26899      .   S
    C39    O106      1.27657      .   S
    C38    O109      1.26899      .   S
    C38    O105      1.27657      .   S
    C37    O108      1.26899      .   S
    C37    O104      1.27657      .   S
    C40    O111      1.26899      .   S
    C40    O107      1.27657      .   S
    C21    O77       1.26910      .   S
    C21    O81       1.27667      .   S
    C23    O79       1.26910      .   S
    C23    O83       1.27667      .   S
    C22    O78       1.26910      .   S
    C22    O82       1.27667      .   S
    C24    O80       1.26909      .   S
    C24    O84       1.27667      .   S
    O125   C46       1.27661      .   S
    O126   C47       1.27661      .   S
    O124   C45       1.27661      .   S
    O127   C48       1.27661      .   S
    O61    C8        1.27657      .   S
    O62    C9        1.27657      .   S
    O63    C10       1.27657      .   S
    O64    C11       1.27657      .   S
    O122   C47       1.26903      .   S
    O121   C46       1.26903      .   S
    O123   C48       1.26904      .   S
    O120   C45       1.26903      .   S
    O65    C8        1.26899      .   S
    O66    C9        1.26899      .   S
    O67    C10       1.26899      .   S
    O68    C11       1.26899      .   S
    O139   C0        1.27187      .   S
    O138   C55       1.27187      .   S
    O137   C54       1.27187      .   S
    O136   C53       1.27187      .   S
    O70    C15       1.27179  1_455   S
    O71    C12       1.27199      .   S
    O72    C13       1.27199      .   S
    O69    C14       1.27170  1_455   S
    C15    O76       1.26361      .   S
    C12    O73       1.26361      .   S
    C13    O74       1.26361      .   S
    C0     O143      1.26353      .   S
    C55    O142      1.26354      .   S
    C54    O141      1.26354      .   S
    C53    O140      1.26354      .   S
    C14    O75       1.26365      .   S
    C49    O132      1.27337      .   S
    C49    O128      1.29713      .   S
    C50    O133      1.27336      .   S
    C50    O129      1.29714      .   S
    C51    O134      1.27337      .   S
    C51    O130      1.29713      .   S
    C52    O135      1.27336      .   S
    C52    O131      1.29713      .   S
    C5     O2        1.27328      .   S
    C5     O60       1.29644  1_455   S
    C6     O3        1.27328      .   S
    C6     O57       1.29655      .   S
    C7     O56       1.27328      .   S
    C7     O58       1.29657      .   S
    C4     O1        1.27327      .   S
    C4     O59       1.29643  1_455   S
