# CIF file generated by openbabel 2.4.90, see http://openbabel.sf.net
data_I
_chemical_name_common ''
_cell_length_a 12.318
_cell_length_b 21.045
_cell_length_c 16.643
_cell_angle_alpha 71.59
_cell_angle_beta 83.891
_cell_angle_gamma 90.005
_space_group_name_H-M_alt 'P 1'
_space_group_name_Hall 'P 1'
loop_
    _symmetry_equiv_pos_as_xyz
    x,y,z
loop_
    _atom_site_label
    _atom_site_type_symbol
    _atom_site_fract_x
    _atom_site_fract_y
    _atom_site_fract_z
    _atom_site_occupancy
    Ca0     Ca   0.37506   0.95213   0.99997   1.000
    Ca1     Ca   0.87507   0.45213   0.99997   1.000
    Ca2     Ca   0.87508   0.95213   0.99997   1.000
    Ca3     Ca   0.02084   0.09187   0.39623   1.000
    Ca4     Ca   0.02084   0.59187   0.39623   1.000
    Ca5     Ca   0.52085   0.09187   0.39623   1.000
    Ca6     Ca   0.52085   0.59187   0.39623   1.000
    Ca7     Ca   0.22919   0.29006   0.60372   1.000
    Ca8     Ca   0.22919   0.79006   0.60372   1.000
    Ca9     Ca   0.72920   0.29006   0.60372   1.000
    Ca10    Ca   0.72921   0.79006   0.60372   1.000
    Ca11    Ca   0.12496   0.04787   0.30000   1.000
    Ca12    Ca   0.12497   0.54787   0.30000   1.000
    Ca13    Ca   0.62498   0.04787   0.30000   1.000
    Ca14    Ca   0.62498   0.54787   0.30000   1.000
    Ca15    Ca   0.47919   0.40812   0.60376   1.000
    Ca16    Ca   0.47919   0.90812   0.60376   1.000
    Ca17    Ca   0.97920   0.40812   0.60376   1.000
    Ca18    Ca   0.97920   0.90812   0.60376   1.000
    Ca19    Ca   0.27083   0.20993   0.39627   1.000
    Ca20    Ca   0.27084   0.70993   0.39627   1.000
    Ca21    Ca   0.77085   0.20993   0.39627   1.000
    Ca22    Ca   0.77085   0.70993   0.39627   1.000
    Ca23    Ca   0.37506   0.45213   0.99997   1.000
    C24     C    0.72159   0.92165   0.68272   1.000
    O25     O    0.09653   0.13306   0.86856   1.000
    O26     O    0.09653   0.63306   0.86856   1.000
    O27     O    0.59654   0.13306   0.86856   1.000
    C28     C    0.01398   0.10095   0.85882   1.000
    C29     C    0.01398   0.60095   0.85882   1.000
    C30     C    0.51399   0.10095   0.85882   1.000
    C31     C    0.51400   0.60095   0.85882   1.000
    C32     C    0.08960   0.17770   0.53564   1.000
    C33     C    0.08961   0.67770   0.53564   1.000
    C34     C    0.58962   0.17770   0.53564   1.000
    C35     C    0.58962   0.67770   0.53564   1.000
    C36     C    0.47153   0.23703   0.68270   1.000
    C37     C    0.47154   0.73703   0.68270   1.000
    C38     C    0.97155   0.23703   0.68274   1.000
    C39     C    0.97155   0.73703   0.68270   1.000
    O40     O    0.40350   0.36693   0.13143   1.000
    O41     O    0.40350   0.86693   0.13143   1.000
    O42     O    0.90351   0.36693   0.13143   1.000
    O43     O    0.90351   0.86693   0.13143   1.000
    O44     O    0.03230   0.44734   0.07710   1.000
    C45     C    0.16045   0.44563   0.46448   1.000
    C46     C    0.16045   0.94563   0.46448   1.000
    C47     C    0.66047   0.44563   0.46448   1.000
    C48     C    0.66047   0.94563   0.46448   1.000
    C49     C    0.23599   0.03004   0.14134   1.000
    C50     C    0.23599   0.53004   0.14134   1.000
    C51     C    0.73600   0.03004   0.14134   1.000
    C52     C    0.73601   0.53004   0.14134   1.000
    C53     C    0.27845   0.07834   0.31728   1.000
    C54     C    0.27846   0.57834   0.31728   1.000
    C55     C    0.77847   0.07834   0.31728   1.000
    C56     C    0.77847   0.57834   0.31728   1.000
    C57     C    0.48605   0.39905   0.14117   1.000
    C58     C    0.48605   0.89905   0.14117   1.000
    C59     C    0.98606   0.39905   0.14117   1.000
    C60     C    0.98606   0.89905   0.14117   1.000
    C61     C    0.41042   0.32230   0.46436   1.000
    C62     C    0.41042   0.82230   0.46436   1.000
    C63     C    0.91043   0.32230   0.46436   1.000
    C64     C    0.91044   0.82230   0.46436   1.000
    C65     C    0.02849   0.26296   0.31725   1.000
    C66     C    0.02849   0.76296   0.31725   1.000
    C67     C    0.52850   0.26296   0.31725   1.000
    C68     C    0.52851   0.76296   0.31725   1.000
    C69     C    0.33957   0.05437   0.53551   1.000
    C70     C    0.33957   0.55437   0.53551   1.000
    C71     C    0.83958   0.05437   0.53551   1.000
    C72     C    0.83959   0.55437   0.53551   1.000
    C73     C    0.26404   0.46996   0.85860   1.000
    C74     C    0.26404   0.96995   0.85860   1.000
    C75     C    0.76405   0.46996   0.85860   1.000
    C76     C    0.76405   0.96995   0.85860   1.000
    C77     C    0.22157   0.42165   0.68272   1.000
    C78     C    0.22157   0.92165   0.68272   1.000
    C79     C    0.72158   0.42165   0.68272   1.000
    O80     O    0.59655   0.63306   0.86856   1.000
    O81     O    0.46773   0.05265   0.92290   1.000
    O82     O    0.46773   0.55265   0.92290   1.000
    O83     O    0.96774   0.05265   0.92290   1.000
    O84     O    0.96774   0.55265   0.92290   1.000
    O85     O    0.10194   0.14458   0.48311   1.000
    O86     O    0.10195   0.64458   0.48311   1.000
    O87     O    0.60196   0.14458   0.48311   1.000
    O88     O    0.60196   0.64458   0.48311   1.000
    O89     O    0.13956   0.23364   0.52091   1.000
    O90     O    0.13956   0.73364   0.52091   1.000
    O91     O    0.63958   0.23364   0.52091   1.000
    O92     O    0.63958   0.73364   0.52091   1.000
    O93     O    0.03253   0.28926   0.66698   1.000
    O94     O    0.03253   0.78926   0.66698   1.000
    O95     O    0.53254   0.28926   0.66698   1.000
    O96     O    0.53254   0.78926   0.66698   1.000
    O97     O    0.36848   0.23436   0.68747   1.000
    O98     O    0.36848   0.73436   0.68747   1.000
    O99     O    0.86849   0.23436   0.68747   1.000
    O100    O    0.86849   0.73436   0.68747   1.000
    O101    O    0.11064   0.49428   0.47916   1.000
    O102    O    0.11064   0.99428   0.47916   1.000
    O103    O    0.61065   0.49428   0.47916   1.000
    O104    O    0.61065   0.99428   0.47916   1.000
    O105    O    0.14802   0.38629   0.51705   1.000
    O106    O    0.14802   0.88628   0.51705   1.000
    O107    O    0.64803   0.38629   0.51705   1.000
    O108    O    0.64803   0.88628   0.51705   1.000
    O109    O    0.28231   0.01383   0.07724   1.000
    O110    O    0.28232   0.51383   0.07724   1.000
    O111    O    0.78233   0.01383   0.07724   1.000
    O112    O    0.78233   0.51383   0.07724   1.000
    O113    O    0.15326   0.06687   0.13164   1.000
    O114    O    0.15326   0.56687   0.13164   1.000
    O115    O    0.65328   0.06687   0.13164   1.000
    O116    O    0.65328   0.56687   0.13164   1.000
    O117    O    0.21742   0.12269   0.33304   1.000
    O118    O    0.21743   0.62269   0.33304   1.000
    O119    O    0.71744   0.12269   0.33304   1.000
    O120    O    0.71744   0.62269   0.33304   1.000
    O121    O    0.38150   0.07806   0.31259   1.000
    O122    O    0.38150   0.57806   0.31259   1.000
    O123    O    0.88151   0.07806   0.31259   1.000
    O124    O    0.88152   0.57806   0.31259   1.000
    O125    O    0.03230   0.94734   0.07710   1.000
    O126    O    0.53231   0.44734   0.07710   1.000
    O127    O    0.53231   0.94734   0.07710   1.000
    O128    O    0.39808   0.35541   0.51689   1.000
    O129    O    0.39808   0.85541   0.51689   1.000
    O130    O    0.89810   0.35541   0.51689   1.000
    O131    O    0.89810   0.85541   0.51689   1.000
    O132    O    0.36046   0.26636   0.47909   1.000
    O133    O    0.36046   0.76635   0.47909   1.000
    O134    O    0.86048   0.26636   0.47909   1.000
    O135    O    0.86048   0.76635   0.47909   1.000
    O136    O    0.46749   0.21073   0.33301   1.000
    O137    O    0.46750   0.71073   0.33301   1.000
    O138    O    0.96751   0.21073   0.33301   1.000
    O139    O    0.96751   0.71073   0.33301   1.000
    O140    O    0.13154   0.26564   0.31253   1.000
    O141    O    0.13155   0.76563   0.31253   1.000
    O142    O    0.63156   0.26564   0.31253   1.000
    O143    O    0.63156   0.76563   0.31253   1.000
    O144    O    0.38939   0.00572   0.52084   1.000
    O145    O    0.38939   0.50572   0.52084   1.000
    O146    O    0.88940   0.00572   0.52084   1.000
    O147    O    0.88941   0.50572   0.52084   1.000
    O148    O    0.35201   0.11371   0.48295   1.000
    O149    O    0.35201   0.61371   0.48295   1.000
    O150    O    0.85202   0.11371   0.48295   1.000
    O151    O    0.85202   0.61371   0.48295   1.000
    O152    O    0.21771   0.48616   0.92276   1.000
    O153    O    0.21771   0.98616   0.92276   1.000
    O154    O    0.71772   0.48616   0.92276   1.000
    O155    O    0.71773   0.98616   0.92276   1.000
    O156    O    0.34676   0.43312   0.86835   1.000
    O157    O    0.34677   0.93312   0.86835   1.000
    O158    O    0.84678   0.43312   0.86835   1.000
    O159    O    0.84678   0.93312   0.86835   1.000
    O160    O    0.28260   0.37731   0.66696   1.000
    O161    O    0.28260   0.87731   0.66696   1.000
    O162    O    0.78261   0.37731   0.66696   1.000
    O163    O    0.78262   0.87731   0.66696   1.000
    O164    O    0.11852   0.42194   0.68740   1.000
    O165    O    0.11853   0.92194   0.68740   1.000
    O166    O    0.61854   0.42194   0.68740   1.000
    O167    O    0.61854   0.92194   0.68740   1.000
    Ts168   Ts   0.04934   0.06951   0.36419   1.000
    Ts169   Ts   0.04934   0.56950   0.36419   1.000
    Ts170   Ts   0.54935   0.06951   0.36419   1.000
    Ts171   Ts   0.54935   0.56950   0.36419   1.000
    Ts172   Ts   0.20068   0.25168   0.63582   1.000
    Ts173   Ts   0.20068   0.75168   0.63582   1.000
    Ts174   Ts   0.70069   0.25168   0.63582   1.000
    Ts175   Ts   0.70070   0.75168   0.63582   1.000
    Ts176   Ts   0.11875   0.04017   0.30004   1.000
    Ts177   Ts   0.11876   0.54017   0.30004   1.000
    Ts178   Ts   0.61877   0.04017   0.30004   1.000
    Ts179   Ts   0.61877   0.54017   0.30004   1.000
    Ts180   Ts   0.45069   0.43049   0.63580   1.000
    Ts181   Ts   0.45069   0.93049   0.63580   1.000
    Ts182   Ts   0.95070   0.43049   0.63580   1.000
    Ts183   Ts   0.95070   0.93049   0.63580   1.000
    Ts184   Ts   0.29934   0.24831   0.36417   1.000
    Ts185   Ts   0.29934   0.74831   0.36417   1.000
    Ts186   Ts   0.79936   0.24831   0.36417   1.000
    Ts187   Ts   0.79936   0.74831   0.36417   1.000
    Og188   Og   0.74047   0.94246   0.68669   1.000
    Og189   Og   0.99939   0.10535   0.83061   1.000
    Og190   Og   0.99939   0.60535   0.83061   1.000
    Og191   Og   0.49939   0.10535   0.83061   1.000
    Og192   Og   0.49940   0.60535   0.83061   1.000
    Og193   Og   0.06433   0.16717   0.56266   1.000
    Og194   Og   0.06433   0.66717   0.56266   1.000
    Og195   Og   0.56434   0.16717   0.56266   1.000
    Og196   Og   0.56435   0.66717   0.56266   1.000
    Og197   Og   0.49043   0.21425   0.68671   1.000
    Og198   Og   0.49043   0.71424   0.68671   1.000
    Og199   Og   0.99043   0.21425   0.68673   1.000
    Og200   Og   0.99043   0.71424   0.68671   1.000
    Og201   Og   0.18573   0.44858   0.43747   1.000
    Og202   Og   0.18574   0.94858   0.43747   1.000
    Og203   Og   0.68575   0.44858   0.43747   1.000
    Og204   Og   0.68575   0.94858   0.43747   1.000
    Og205   Og   0.25059   0.02003   0.16955   1.000
    Og206   Og   0.25059   0.52036   0.16955   1.000
    Og207   Og   0.75061   0.02003   0.16955   1.000
    Og208   Og   0.75061   0.52036   0.16955   1.000
    Og209   Og   0.25957   0.05754   0.31331   1.000
    Og210   Og   0.25958   0.55754   0.31331   1.000
    Og211   Og   0.75959   0.05754   0.31331   1.000
    Og212   Og   0.75959   0.55754   0.31331   1.000
    Og213   Og   0.50064   0.39464   0.16939   1.000
    Og214   Og   0.50065   0.89464   0.16939   1.000
    Og215   Og   0.00065   0.39464   0.16939   1.000
    Og216   Og   0.00065   0.89464   0.16939   1.000
    Og217   Og   0.43569   0.33282   0.43734   1.000
    Og218   Og   0.43570   0.83282   0.43734   1.000
    Og219   Og   0.93571   0.33282   0.43734   1.000
    Og220   Og   0.93571   0.83282   0.43734   1.000
    Og221   Og   0.00961   0.28575   0.31326   1.000
    Og222   Og   0.00961   0.78575   0.31326   1.000
    Og223   Og   0.50961   0.28575   0.31326   1.000
    Og224   Og   0.50961   0.78575   0.31326   1.000
    Og225   Og   0.31429   0.05142   0.56252   1.000
    Og226   Og   0.31429   0.55142   0.56252   1.000
    Og227   Og   0.81430   0.05142   0.56252   1.000
    Og228   Og   0.81430   0.55142   0.56252   1.000
    Og229   Og   0.24943   0.47963   0.83041   1.000
    Og230   Og   0.24943   0.97963   0.83041   1.000
    Og231   Og   0.74945   0.47963   0.83041   1.000
    Og232   Og   0.74945   0.97963   0.83041   1.000
    Og233   Og   0.24045   0.44246   0.68669   1.000
    Og234   Og   0.24045   0.94246   0.68669   1.000
    Og235   Og   0.74046   0.44246   0.68669   1.000
loop_
    _geom_bond_atom_site_label_1
    _geom_bond_atom_site_label_2
    _geom_bond_distance
    _geom_bond_site_symmetry_2
    _ccdc_geom_bond_type
    O44    C59       1.29636  1_455   S
    O125   C60       1.29636  1_455   S
    O126   C57       1.29648      .   S
    O127   C58       1.29648      .   S
    O112   C52       1.29629      .   S
    O112   Ca1       2.32114  1_554   S
    O111   C51       1.29629      .   S
    O111   Ca2       2.32120  1_544   S
    O110   C50       1.29629      .   S
    O110   Ca23      2.32114  1_554   S
    O109   C49       1.29629      .   S
    O109   Ca0       2.32120  1_544   S
    O40    C57       1.27327      .   S
    O41    C58       1.27328      .   S
    O42    C59       1.27327      .   S
    O43    C60       1.27327      .   S
    O116   C52       1.27334      .   S
    O113   C49       1.27334      .   S
    O114   C50       1.27334      .   S
    O115   C51       1.27334      .   S
    O140   C65       1.26366      .   S
    O140   Ca19      2.39535      .   S
    O141   C66       1.26366      .   S
    O141   Ca20      2.39535      .   S
    O142   C67       1.26366      .   S
    O142   Ca21      2.39535      .   S
    O143   C68       1.26366      .   S
    O143   Ca22      2.39535      .   S
    O124   C56       1.26353      .   S
    O123   C55       1.26353      .   S
    O122   C54       1.26353      .   S
    O121   C53       1.26353      .   S
    C65    O138      1.27169  1_455   S
    C68    O137      1.27188      .   S
    C67    O136      1.27189      .   S
    C66    O139      1.27168  1_455   S
    C56    O120      1.27187      .   S
    C55    O119      1.27187      .   S
    C54    O118      1.27187      .   S
    C53    O117      1.27187      .   S
    Ca4    O86       2.37486      .   S
    Ca5    O87       2.37486      .   S
    Ca6    O88       2.37486      .   S
    Ca3    O85       2.37486      .   S
    Ca20   O149      2.37568      .   S
    Ca22   O151      2.37568      .   S
    Ca21   O150      2.37568      .   S
    Ca19   O148      2.37568      .   S
    C63    O134      1.26899      .   S
    C63    O130      1.27657      .   S
    C62    O133      1.26899      .   S
    C62    O129      1.27657      .   S
    C61    O132      1.26899      .   S
    C61    O128      1.27657      .   S
    C64    O135      1.26899      .   S
    C64    O131      1.27657      .   S
    C45    O101      1.26910      .   S
    C45    O105      1.27667      .   S
    C47    O103      1.26910      .   S
    C47    O107      1.27667      .   S
    C46    O102      1.26910      .   S
    C46    O106      1.27667      .   S
    C48    O104      1.26909      .   S
    C48    O108      1.27667      .   S
    O149   C70       1.27661      .   S
    O150   C71       1.27661      .   S
    O148   C69       1.27661      .   S
    O151   C72       1.27661      .   S
    O85    C32       1.27657      .   S
    O86    C33       1.27657      .   S
    O87    C34       1.27657      .   S
    O88    C35       1.27657      .   S
    O131   Ca18      2.37472      .   S
    O130   Ca17      2.37472      .   S
    O129   Ca16      2.37472      .   S
    O128   Ca15      2.37472      .   S
    O105   Ca7       2.37561      .   S
    O108   Ca10      2.37561      .   S
    O107   Ca9       2.37561      .   S
    O106   Ca8       2.37561      .   S
    O146   C71       1.26903      .   S
    O145   C70       1.26903      .   S
    O147   C72       1.26904      .   S
    O144   C69       1.26903      .   S
    O89    C32       1.26899      .   S
    O90    C33       1.26899      .   S
    O91    C34       1.26899      .   S
    O92    C35       1.26899      .   S
    Ca8    O98       2.39543      .   S
    Ca9    O99       2.39544      .   S
    Ca10   O100      2.39543      .   S
    Ca7    O97       2.39544      .   S
    Ca15   O166      2.39432      .   S
    Ca16   O167      2.39433      .   S
    Ca17   O164      2.39405  1_655   S
    Ca18   O165      2.39405  1_655   S
    O163   C24       1.27187      .   S
    O162   C79       1.27187      .   S
    O161   C78       1.27187      .   S
    O160   C77       1.27187      .   S
    O94    C39       1.27179  1_455   S
    O95    C36       1.27199      .   S
    O96    C37       1.27199      .   S
    O93    C38       1.27170  1_455   S
    C39    O100      1.26361      .   S
    C36    O97       1.26361      .   S
    C37    O98       1.26361      .   S
    C24    O167      1.26353      .   S
    C79    O166      1.26354      .   S
    C78    O165      1.26354      .   S
    C77    O164      1.26354      .   S
    C38    O99       1.26365      .   S
    C73    O156      1.27337      .   S
    C73    O152      1.29713      .   S
    C74    O157      1.27336      .   S
    C74    O153      1.29714      .   S
    C75    O158      1.27337      .   S
    C75    O154      1.29713      .   S
    C76    O159      1.27336      .   S
    C76    O155      1.29713      .   S
    C29    O26       1.27328      .   S
    C29    O84       1.29644  1_455   S
    C30    O27       1.27328      .   S
    C30    O81       1.29655      .   S
    C31    O80       1.27328      .   S
    C31    O82       1.29657      .   S
    C28    O25       1.27327      .   S
    C28    O83       1.29643  1_455   S
    O81    Ca0       2.32331  1_545   S
    O82    Ca23      2.32329      .   S
    O83    Ca2       2.32331  1_545   S
    O84    Ca1       2.32329      .   S
    O85    Ca19      2.53226      .   S
    O86    Ca20      2.53226      .   S
    O87    Ca21      2.53226      .   S
    O88    Ca22      2.53225      .   S
    O89    Ca7       2.42603      .   S
    O89    Ca19      2.66582      .   S
    O90    Ca8       2.42602      .   S
    O90    Ca20      2.66582      .   S
    O91    Ca9       2.42602      .   S
    O91    Ca21      2.66582      .   S
    O92    Ca10      2.42602      .   S
    O92    Ca22      2.66582      .   S
    O93    Ca7       2.53442      .   S
    O93    Ca17      2.50611  1_455   S
    O94    Ca8       2.53441      .   S
    O94    Ca18      2.50611  1_455   S
    O95    Ca9       2.53441      .   S
    O95    Ca15      2.50622      .   S
    O96    Ca10      2.53441      .   S
    O96    Ca16      2.50622      .   S
    O101   Ca4       2.42518      .   S
    O101   Ca12      2.82097      .   S
    O101   Ca17      2.66811  1_455   S
    O102   Ca3       2.42526  1_565   S
    O102   Ca11      2.82098  1_565   S
    O102   Ca18      2.66811  1_455   S
    O103   Ca6       2.42518      .   S
    O103   Ca14      2.82097      .   S
    O103   Ca15      2.66829      .   S
    O104   Ca5       2.42526  1_565   S
    O104   Ca13      2.82098  1_565   S
    O104   Ca16      2.66829      .   S
    O105   Ca17      2.52952  1_455   S
    O106   Ca18      2.52952  1_455   S
    O107   Ca15      2.52978      .   S
    O108   Ca16      2.52978      .   S
    O113   Ca11      2.68645      .   S
    O114   Ca12      2.68645      .   S
    O115   Ca13      2.68645      .   S
    O116   Ca14      2.68645      .   S
    O117   Ca3       2.53326      .   S
    O117   Ca11      2.18144      .   S
    O117   Ca19      2.50577      .   S
    O118   Ca4       2.53325      .   S
    O118   Ca12      2.18146      .   S
    O118   Ca20      2.50577      .   S
    O119   Ca5       2.53325      .   S
    O119   Ca13      2.18144      .   S
    O119   Ca21      2.50577      .   S
    O120   Ca6       2.53325      .   S
    O120   Ca14      2.18146      .   S
    O120   Ca22      2.50577      .   S
    O121   Ca5       2.39434      .   S
    O122   Ca6       2.39434      .   S
    O123   Ca3       2.39405  1_655   S
    O124   Ca4       2.39407  1_655   S
    O40    Ca23      2.41031  1_554   S
    O41    Ca0       2.41032  1_554   S
    O42    Ca1       2.41031  1_554   S
    O43    Ca2       2.41031  1_554   S
    O44    Ca1       2.41996  1_454   S
    O125   Ca2       2.41996  1_454   S
    O126   Ca23      2.42025  1_554   S
    O127   Ca0       2.42025  1_554   S
    O128   Ca7       2.53222      .   S
    O129   Ca8       2.53222      .   S
    O130   Ca9       2.53222      .   S
    O131   Ca10      2.53222      .   S
    O132   Ca7       2.66569      .   S
    O132   Ca19      2.42615      .   S
    O133   Ca8       2.66569      .   S
    O133   Ca20      2.42615      .   S
    O134   Ca9       2.66569      .   S
    O134   Ca21      2.42615      .   S
    O135   Ca10      2.66569      .   S
    O135   Ca22      2.42615      .   S
    O136   Ca5       2.50622      .   S
    O136   Ca19      2.53441      .   S
    O137   Ca6       2.50622      .   S
    O137   Ca20      2.53442      .   S
    O138   Ca3       2.50611  1_655   S
    O138   Ca21      2.53441      .   S
    O139   Ca4       2.50611  1_655   S
    O139   Ca22      2.53442      .   S
    O144   Ca5       2.66838      .   S
    O144   Ca16      2.42520  1_545   S
    O145   Ca6       2.66838      .   S
    O145   Ca15      2.42513      .   S
    O146   Ca3       2.66819  1_655   S
    O146   Ca18      2.42520  1_545   S
    O147   Ca4       2.66819  1_655   S
    O147   Ca17      2.42513      .   S
    O148   Ca5       2.52987      .   S
    O149   Ca6       2.52987      .   S
    O150   Ca3       2.52960  1_655   S
    O151   Ca4       2.52961  1_655   S
    O152   Ca23      2.42283      .   S
    O153   Ca0       2.42283      .   S
    O154   Ca1       2.42283      .   S
    O155   Ca2       2.42282      .   S
    O156   Ca23      2.40744      .   S
    O157   Ca0       2.40744      .   S
    O158   Ca1       2.40744      .   S
    O159   Ca2       2.40744      .   S
    O160   Ca7       2.50588      .   S
    O160   Ca15      2.53330      .   S
    O161   Ca8       2.50588      .   S
    O161   Ca16      2.53330      .   S
    O162   Ca9       2.50588      .   S
    O162   Ca17      2.53330      .   S
    O163   Ca10      2.50588      .   S
    O163   Ca18      2.53330      .   S
    Ca3    Ts168     0.86476      .   S
    Ca4    Ts169     0.86476      .   S
    Ca5    Ts170     0.86476      .   S
    Ca6    Ts171     0.86476      .   S
    Ca7    Ts172     0.86517      .   S
    Ca8    Ts173     0.86517      .   S
    Ca9    Ts174     0.86517      .   S
    Ca10   Ts175     0.86517      .   S
    Ca11   Ts176     0.17894      .   S
    Ca12   Ts177     0.17893      .   S
    Ca13   Ts178     0.17894      .   S
    Ca14   Ts179     0.17893      .   S
    Ca15   Ts180     0.86480      .   S
    Ca16   Ts181     0.86480      .   S
    Ca17   Ts182     0.86480      .   S
    Ca18   Ts183     0.86480      .   S
    Ca19   Ts184     0.86517      .   S
    Ca20   Ts185     0.86517      .   S
    Ca21   Ts186     0.86517      .   S
    Ca22   Ts187     0.86517      .   S
    C24    Og188     0.52123      .   S
    C28    Og189     0.50185  1_455   S
    C29    Og190     0.50185  1_455   S
    C30    Og191     0.50190      .   S
    C31    Og192     0.50190      .   S
    C32    Og193     0.50542      .   S
    C33    Og194     0.50542      .   S
    C34    Og195     0.50542      .   S
    C35    Og196     0.50542      .   S
    C36    Og197     0.52119      .   S
    C37    Og198     0.52119      .   S
    C38    Og199     0.52116      .   S
    C39    Og200     0.52114      .   S
    C45    Og201     0.50542      .   S
    C46    Og202     0.50542      .   S
    C47    Og203     0.50542      .   S
    C48    Og204     0.50542      .   S
    C49    Og205     0.50273      .   S
    C50    Og206     0.50190      .   S
    C51    Og207     0.50273      .   S
    C52    Og208     0.50190      .   S
    C53    Og209     0.52123      .   S
    C54    Og210     0.52123      .   S
    C55    Og211     0.52123      .   S
    C56    Og212     0.52123      .   S
    C57    Og213     0.50195      .   S
    C58    Og214     0.50195      .   S
    C59    Og215     0.50190  1_655   S
    C60    Og216     0.50190  1_655   S
    C61    Og217     0.50545      .   S
    C62    Og218     0.50545      .   S
    C63    Og219     0.50545      .   S
    C64    Og220     0.50545      .   S
    C65    Og221     0.52118      .   S
    C66    Og222     0.52118      .   S
    C67    Og223     0.52123      .   S
    C68    Og224     0.52123      .   S
    C69    Og225     0.50542      .   S
    C70    Og226     0.50542      .   S
    C71    Og227     0.50542      .   S
    C72    Og228     0.50542      .   S
    C73    Og229     0.50161      .   S
    C74    Og230     0.50163      .   S
    C75    Og231     0.50161      .   S
    C76    Og232     0.50163      .   S
    C77    Og233     0.52123      .   S
    C78    Og234     0.52123      .   S
    C79    Og235     0.52123      .   S
