# CIF file generated by openbabel 2.4.90, see http://openbabel.sf.net
data_I
_chemical_name_common ''
_cell_length_a 12.318
_cell_length_b 21.045
_cell_length_c 16.643
_cell_angle_alpha 71.59
_cell_angle_beta 83.891
_cell_angle_gamma 90.005
_space_group_name_H-M_alt 'P 1'
_space_group_name_Hall 'P 1'
loop_
    _symmetry_equiv_pos_as_xyz
    x,y,z
loop_
    _atom_site_label
    _atom_site_type_symbol
    _atom_site_fract_x
    _atom_site_fract_y
    _atom_site_fract_z
    _atom_site_occupancy
    Zr0     Zr   0.37506   0.45213   0.99997   1.000
    Zr1     Zr   0.37506   0.95213   0.99997   1.000
    Zr2     Zr   0.87507   0.45213   0.99997   1.000
    Zr3     Zr   0.87508   0.95213   0.99997   1.000
    Zr4     Zr   0.02084   0.09187   0.39623   1.000
    Zr5     Zr   0.02084   0.59187   0.39623   1.000
    Zr6     Zr   0.52085   0.09187   0.39623   1.000
    Zr7     Zr   0.52085   0.59187   0.39623   1.000
    Zr8     Zr   0.22919   0.29006   0.60372   1.000
    Zr9     Zr   0.22919   0.79006   0.60372   1.000
    Zr10    Zr   0.72920   0.29006   0.60372   1.000
    Zr11    Zr   0.72921   0.79006   0.60372   1.000
    Zr12    Zr   0.12496   0.04787   0.30000   1.000
    Zr13    Zr   0.12497   0.54787   0.30000   1.000
    Zr14    Zr   0.62498   0.04787   0.30000   1.000
    Zr15    Zr   0.62498   0.54787   0.30000   1.000
    Zr16    Zr   0.47919   0.40812   0.60376   1.000
    Zr17    Zr   0.47919   0.90812   0.60376   1.000
    Zr18    Zr   0.97920   0.40812   0.60376   1.000
    Zr19    Zr   0.97920   0.90812   0.60376   1.000
    Zr20    Zr   0.27083   0.20993   0.39627   1.000
    Zr21    Zr   0.27084   0.70993   0.39627   1.000
    Zr22    Zr   0.77085   0.20993   0.39627   1.000
    Zr23    Zr   0.77085   0.70993   0.39627   1.000
    N24     N    0.73773   0.48619   0.29761   1.000
    O25     O    0.65067   0.52226   0.32289   1.000
    O26     O    0.67670   0.51126   0.29883   1.000
    N27     N    0.51231   0.13507   0.70254   1.000
    O28     O    0.59937   0.18378   0.67721   1.000
    N29     N    0.23772   0.98608   0.29761   1.000
    O30     O    0.17668   0.01120   0.29883   1.000
    O31     O    0.15065   0.02220   0.32289   1.000
    N32     N    0.51231   0.63507   0.70254   1.000
    O33     O    0.59938   0.68378   0.67721   1.000
    N34     N    0.23772   0.48619   0.29761   1.000
    O35     O    0.15065   0.52226   0.32289   1.000
    O36     O    0.17669   0.51126   0.29883   1.000
    N37     N    0.01231   0.63507   0.70254   1.000
    O38     O    0.09937   0.68378   0.67721   1.000
    N39     N    0.76232   0.01380   0.70238   1.000
    O40     O    0.84939   0.97774   0.67710   1.000
    N41     N    0.98773   0.36493   0.29744   1.000
    O42     O    0.90067   0.31621   0.32278   1.000
    N43     N    0.73773   0.98608   0.29761   1.000
    O44     O    0.65067   0.02220   0.32289   1.000
    O45     O    0.67670   0.01120   0.29883   1.000
    N46     N    0.48773   0.36493   0.29744   1.000
    O47     O    0.40066   0.31621   0.32278   1.000
    N48     N    0.98773   0.86493   0.29744   1.000
    O49     O    0.90067   0.81621   0.32278   1.000
    N50     N    0.48773   0.86493   0.29744   1.000
    O51     O    0.40066   0.81621   0.32278   1.000
    N52     N    0.01231   0.13507   0.70255   1.000
    O53     O    0.09937   0.18378   0.67721   1.000
    N54     N    0.26231   0.01380   0.70238   1.000
    O55     O    0.34937   0.97774   0.67710   1.000
    N56     N    0.26231   0.51380   0.70234   1.000
    O57     O    0.34937   0.47774   0.67708   1.000
    N58     N    0.76232   0.51380   0.70234   1.000
    O59     O    0.84939   0.47774   0.67708   1.000
    C60     C    0.22386   0.53691   0.11674   1.000
    O61     O    0.23583   0.51889   0.17869   1.000
    O62     O    0.27627   0.50995   0.07767   1.000
    O63     O    0.18149   0.54714   0.16628   1.000
    C64     C    0.04252   0.74644   0.32093   1.000
    O65     O    0.01835   0.69887   0.34278   1.000
    O66     O    0.95585   0.72839   0.34279   1.000
    O67     O    0.01823   0.78874   0.31264   1.000
    O68     O    0.12185   0.74211   0.33767   1.000
    C69     C    0.13970   0.44206   0.48690   1.000
    O70     O    0.16415   0.39012   0.52364   1.000
    O71     O    0.10165   0.41963   0.52365   1.000
    O72     O    0.10272   0.49257   0.46230   1.000
    O73     O    0.12875   0.48157   0.43824   1.000
    O74     O    0.09231   0.44663   0.51418   1.000
    O75     O    0.17887   0.45509   0.42384   1.000
    C76     C    0.54252   0.74644   0.32093   1.000
    O77     O    0.45584   0.72839   0.34279   1.000
    O78     O    0.51835   0.69887   0.34278   1.000
    O79     O    0.51824   0.78874   0.31264   1.000
    O80     O    0.62186   0.74211   0.33767   1.000
    C81     C    0.29246   0.59303   0.32097   1.000
    O82     O    0.37182   0.58900   0.33769   1.000
    O83     O    0.26819   0.55485   0.31272   1.000
    O84     O    0.20580   0.60015   0.34280   1.000
    O85     O    0.23183   0.58915   0.31875   1.000
    O86     O    0.26830   0.62967   0.34281   1.000
    C87     C    0.02609   0.59555   0.88343   1.000
    O88     O    0.97375   0.54897   0.92243   1.000
    O89     O    0.01414   0.60843   0.82147   1.000
    C90     C    0.54252   0.24644   0.32093   1.000
    O91     O    0.51823   0.28874   0.31264   1.000
    O92     O    0.62186   0.24211   0.33767   1.000
    O93     O    0.51835   0.19887   0.34278   1.000
    O94     O    0.45584   0.22839   0.34279   1.000
    C95     C    0.70758   0.40696   0.67903   1.000
    O96     O    0.62822   0.41100   0.66230   1.000
    O97     O    0.73184   0.44515   0.68727   1.000
    O98     O    0.73174   0.37032   0.65718   1.000
    O99     O    0.79424   0.39984   0.65719   1.000
    C100    C    0.27617   0.46308   0.88324   1.000
    O101    O    0.28628   0.46611   0.92230   1.000
    O102    O    0.26419   0.48111   0.82128   1.000
    O103    O    0.31854   0.45285   0.90870   1.000
    C104    C    0.52609   0.59555   0.88343   1.000
    O105    O    0.47374   0.54897   0.92243   1.000
    O106    O    0.51415   0.60843   0.82147   1.000
    C107    C    0.63972   0.44206   0.48690   1.000
    O108    O    0.62876   0.48157   0.43824   1.000
    O109    O    0.59232   0.44663   0.51418   1.000
    O110    O    0.60273   0.49257   0.46230   1.000
    O111    O    0.66417   0.39012   0.52364   1.000
    O112    O    0.60166   0.41963   0.52365   1.000
    O113    O    0.67889   0.45509   0.42384   1.000
    C114    C    0.47395   0.40444   0.11657   1.000
    O115    O    0.48589   0.39156   0.17852   1.000
    O116    O    0.43161   0.40699   0.09113   1.000
    O117    O    0.46382   0.42709   0.07755   1.000
    C118    C    0.86034   0.55793   0.51310   1.000
    O119    O    0.89838   0.58036   0.47635   1.000
    O120    O    0.83589   0.60988   0.47636   1.000
    O121    O    0.82116   0.54490   0.57614   1.000
    O122    O    0.90773   0.55336   0.48582   1.000
    O123    O    0.89732   0.50743   0.53770   1.000
    C124    C    0.97396   0.40444   0.11657   1.000
    O125    O    0.98590   0.39156   0.17852   1.000
    O126    O    0.93162   0.40699   0.09113   1.000
    O127    O    0.96382   0.42709   0.07755   1.000
    C128    C    0.79247   0.09303   0.32097   1.000
    O129    O    0.76821   0.05482   0.31272   1.000
    O130    O    0.70581   0.10015   0.34280   1.000
    O131    O    0.73184   0.08915   0.31875   1.000
    O132    O    0.76831   0.12967   0.34281   1.000
    O133    O    0.87182   0.08900   0.33769   1.000
    C134    C    0.04251   0.24644   0.32093   1.000
    O135    O    0.01823   0.28874   0.31264   1.000
    O136    O    0.95585   0.22839   0.34279   1.000
    O137    O    0.01834   0.19887   0.34278   1.000
    O138    O    0.12185   0.24211   0.33767   1.000
    C139    C    0.36032   0.05793   0.51310   1.000
    O140    O    0.32115   0.04490   0.57615   1.000
    O141    O    0.39837   0.08036   0.47635   1.000
    O142    O    0.33587   0.10988   0.47636   1.000
    O143    O    0.40772   0.05336   0.48582   1.000
    O144    O    0.39730   0.00743   0.53770   1.000
    C145    C    0.88967   0.81469   0.48678   1.000
    O146    O    0.92885   0.83310   0.42371   1.000
    O147    O    0.84226   0.79645   0.51409   1.000
    O148    O    0.85267   0.77642   0.46223   1.000
    O149    O    0.85166   0.81871   0.52354   1.000
    O150    O    0.91416   0.84823   0.52355   1.000
    C151    C    0.97396   0.90444   0.11657   1.000
    O152    O    0.98590   0.89156   0.17852   1.000
    O153    O    0.93163   0.90698   0.09113   1.000
    O154    O    0.96382   0.92709   0.07755   1.000
    C155    C    0.72387   0.03692   0.11674   1.000
    O156    O    0.73585   0.01873   0.17869   1.000
    O157    O    0.68150   0.04714   0.16628   1.000
    O158    O    0.77629   0.00995   0.07767   1.000
    C159    C    0.61039   0.68531   0.51322   1.000
    O160    O    0.64739   0.72358   0.53777   1.000
    O161    O    0.65780   0.70355   0.48591   1.000
    O162    O    0.57120   0.66690   0.57629   1.000
    O163    O    0.64840   0.68128   0.47646   1.000
    O164    O    0.58590   0.65177   0.47645   1.000
    C165    C    0.72387   0.53691   0.11674   1.000
    O166    O    0.77629   0.50995   0.07767   1.000
    O167    O    0.73585   0.51889   0.17869   1.000
    O168    O    0.68150   0.54714   0.16628   1.000
    C169    C    0.29246   0.09303   0.32097   1.000
    O170    O    0.26829   0.12967   0.34281   1.000
    O171    O    0.20579   0.10015   0.34280   1.000
    O172    O    0.23182   0.08915   0.31875   1.000
    O173    O    0.26819   0.05482   0.31272   1.000
    O174    O    0.37182   0.08900   0.33769   1.000
    C175    C    0.95753   0.75355   0.67905   1.000
    O176    O    0.04419   0.77161   0.65720   1.000
    O177    O    0.98170   0.80112   0.65721   1.000
    O178    O    0.87819   0.75788   0.66232   1.000
    O179    O    0.98181   0.71125   0.68734   1.000
    C180    C    0.45752   0.25355   0.67905   1.000
    O181    O    0.37818   0.25788   0.66232   1.000
    O182    O    0.48180   0.21126   0.68734   1.000
    O183    O    0.48169   0.30112   0.65721   1.000
    O184    O    0.54419   0.27161   0.65720   1.000
    C185    C    0.45752   0.75355   0.67905   1.000
    O186    O    0.48181   0.71125   0.68734   1.000
    O187    O    0.54420   0.77161   0.65720   1.000
    O188    O    0.48169   0.80112   0.65721   1.000
    O189    O    0.37818   0.75788   0.66232   1.000
    C190    C    0.47395   0.90444   0.11657   1.000
    O191    O    0.48590   0.89156   0.17852   1.000
    O192    O    0.43162   0.90698   0.09113   1.000
    O193    O    0.46382   0.92709   0.07755   1.000
    C194    C    0.02608   0.09555   0.88343   1.000
    O195    O    0.01414   0.10843   0.82148   1.000
    O196    O    0.97375   0.04897   0.92243   1.000
    C197    C    0.36032   0.55793   0.51310   1.000
    O198    O    0.32115   0.54490   0.57614   1.000
    O199    O    0.40772   0.55336   0.48582   1.000
    O200    O    0.39731   0.50743   0.53770   1.000
    O201    O    0.39838   0.58036   0.47635   1.000
    O202    O    0.33587   0.60988   0.47636   1.000
    C203    C    0.77618   0.46308   0.88324   1.000
    O204    O    0.78629   0.46611   0.92230   1.000
    O205    O    0.76421   0.48111   0.82128   1.000
    O206    O    0.81855   0.45285   0.90870   1.000
    C207    C    0.20757   0.90696   0.67903   1.000
    O208    O    0.12822   0.91100   0.66230   1.000
    O209    O    0.23173   0.87032   0.65718   1.000
    O210    O    0.29423   0.89984   0.65719   1.000
    O211    O    0.23183   0.94515   0.68728   1.000
    C212    C    0.88967   0.31469   0.48678   1.000
    O213    O    0.85166   0.31871   0.52354   1.000
    O214    O    0.91416   0.34823   0.52355   1.000
    O215    O    0.84225   0.29645   0.51409   1.000
    O216    O    0.85266   0.27642   0.46223   1.000
    O217    O    0.92885   0.33310   0.42371   1.000
    C218    C    0.86034   0.05793   0.51310   1.000
    O219    O    0.82116   0.04490   0.57615   1.000
    O220    O    0.90773   0.05336   0.48582   1.000
    O221    O    0.89732   0.00743   0.53770   1.000
    O222    O    0.89838   0.08036   0.47635   1.000
    O223    O    0.83588   0.10988   0.47636   1.000
    C224    C    0.11037   0.68531   0.51322   1.000
    O225    O    0.07119   0.66690   0.57629   1.000
    O226    O    0.14838   0.68128   0.47646   1.000
    O227    O    0.08588   0.65177   0.47645   1.000
    O228    O    0.14738   0.72358   0.53777   1.000
    O229    O    0.15779   0.70355   0.48591   1.000
    C230    C    0.63972   0.94206   0.48690   1.000
    O231    O    0.60274   0.99257   0.46230   1.000
    O232    O    0.62877   0.98157   0.43824   1.000
    O233    O    0.59232   0.94663   0.51418   1.000
    O234    O    0.66417   0.89012   0.52364   1.000
    O235    O    0.60167   0.91963   0.52365   1.000
    O236    O    0.67889   0.95506   0.42384   1.000
    C237    C    0.79247   0.59303   0.32097   1.000
    O238    O    0.76821   0.55485   0.31272   1.000
    O239    O    0.70581   0.60015   0.34280   1.000
    O240    O    0.73184   0.58915   0.31875   1.000
    O241    O    0.76831   0.62967   0.34281   1.000
    O242    O    0.87183   0.58900   0.33769   1.000
    C243    C    0.22385   0.03692   0.11674   1.000
    O244    O    0.27627   0.00995   0.07767   1.000
    O245    O    0.23583   0.01873   0.17869   1.000
    O246    O    0.18148   0.04714   0.16628   1.000
    C247    C    0.13970   0.94206   0.48690   1.000
    O248    O    0.16416   0.89012   0.52364   1.000
    O249    O    0.10166   0.91963   0.52365   1.000
    O250    O    0.17888   0.95506   0.42384   1.000
    O251    O    0.10272   0.99257   0.46230   1.000
    O252    O    0.12875   0.98157   0.43824   1.000
    O253    O    0.09231   0.94663   0.51418   1.000
    C254    C    0.11037   0.18531   0.51322   1.000
    O255    O    0.14737   0.22358   0.53777   1.000
    O256    O    0.15778   0.20355   0.48591   1.000
    O257    O    0.07118   0.16690   0.57629   1.000
    O258    O    0.14838   0.18128   0.47646   1.000
    O259    O    0.08588   0.15177   0.47645   1.000
    C260    C    0.77619   0.96308   0.88324   1.000
    O261    O    0.78629   0.96611   0.92230   1.000
    O262    O    0.81856   0.95285   0.90870   1.000
    O263    O    0.76421   0.98111   0.82129   1.000
    C264    C    0.20756   0.40696   0.67903   1.000
    O265    O    0.23173   0.37032   0.65718   1.000
    O266    O    0.29423   0.39984   0.65719   1.000
    O267    O    0.12821   0.41100   0.66230   1.000
    O268    O    0.23183   0.44515   0.68727   1.000
    C269    C    0.70758   0.90696   0.67903   1.000
    O270    O    0.73175   0.87032   0.65718   1.000
    O271    O    0.79425   0.89984   0.65719   1.000
    O272    O    0.62822   0.91100   0.66230   1.000
    O273    O    0.73185   0.94515   0.68728   1.000
    C274    C    0.61038   0.18531   0.51322   1.000
    O275    O    0.64739   0.22358   0.53777   1.000
    O276    O    0.65780   0.20355   0.48591   1.000
    O277    O    0.64839   0.18128   0.47646   1.000
    O278    O    0.58589   0.15177   0.47645   1.000
    O279    O    0.57120   0.16690   0.57629   1.000
    C280    C    0.38965   0.31469   0.48678   1.000
    O281    O    0.34224   0.29645   0.51409   1.000
    O282    O    0.35265   0.27642   0.46223   1.000
    O283    O    0.35164   0.31871   0.52354   1.000
    O284    O    0.41414   0.34823   0.52355   1.000
    O285    O    0.42884   0.33310   0.42371   1.000
    C286    C    0.38966   0.81469   0.48678   1.000
    O287    O    0.34224   0.79645   0.51409   1.000
    O288    O    0.35265   0.77642   0.46223   1.000
    O289    O    0.42884   0.83310   0.42371   1.000
    O290    O    0.35165   0.81871   0.52354   1.000
    O291    O    0.41415   0.84823   0.52355   1.000
    C292    C    0.95752   0.25355   0.67906   1.000
    O293    O    0.87818   0.25788   0.66233   1.000
    O294    O    0.98181   0.21126   0.68735   1.000
    O295    O    0.04419   0.27161   0.65721   1.000
    O296    O    0.98169   0.30112   0.65722   1.000
    C297    C    0.52609   0.09555   0.88343   1.000
    O298    O    0.51414   0.10843   0.82147   1.000
    O299    O    0.47374   0.04897   0.92243   1.000
    C300    C    0.27617   0.96308   0.88324   1.000
    O301    O    0.28628   0.96611   0.92230   1.000
    O302    O    0.31854   0.95285   0.90870   1.000
    O303    O    0.26420   0.98111   0.82129   1.000
loop_
    _geom_bond_atom_site_label_1
    _geom_bond_atom_site_label_2
    _geom_bond_distance
    _geom_bond_site_symmetry_2
    _ccdc_geom_bond_type
    N24    O25       1.41743      .   S
    Zr7    O25       2.62819      .   S
    N24    O26       0.92059      .   S
    Zr15   O26       1.00338      .   S
    N27    O28       1.41758      .   S
    Zr10   O28       2.62894      .   S
    N29    O30       0.92130  1_565   S
    Zr12   O30       1.00433      .   S
    N29    O31       1.41821  1_565   S
    Zr4    O31       2.62907      .   S
    N32    O33       1.41758      .   S
    Zr11   O33       2.62894      .   S
    N34    O35       1.41742      .   S
    Zr5    O35       2.62819      .   S
    N34    O36       0.92059      .   S
    Zr13   O36       1.00338      .   S
    N37    O38       1.41753      .   S
    Zr9    O38       2.62890      .   S
    N39    O40       1.41744  1_545   S
    Zr19   O40       2.62825      .   S
    N41    O42       1.41752      .   S
    Zr22   O42       2.62890      .   S
    N43    O44       1.41820  1_565   S
    Zr6    O44       2.62906      .   S
    N43    O45       0.92130  1_565   S
    Zr14   O45       1.00433      .   S
    N46    O47       1.41758      .   S
    Zr20   O47       2.62895      .   S
    N48    O49       1.41753      .   S
    Zr23   O49       2.62890      .   S
    N50    O51       1.41758      .   S
    Zr21   O51       2.62895      .   S
    N52    O53       1.41753      .   S
    Zr8    O53       2.62890      .   S
    N54    O55       1.41744  1_545   S
    Zr17   O55       2.62825      .   S
    N56    O57       1.41728      .   S
    Zr16   O57       2.62803      .   S
    N58    O59       1.41728      .   S
    Zr18   O59       2.62803      .   S
    C60    O61       1.00696      .   S
    N34    O61       1.88175      .   S
    C60    O62       1.14259      .   S
    Zr0    O62       2.30067  1_556   S
    C60    O63       1.00947      .   S
    Zr13   O63       2.26484      .   S
    C64    O65       0.98495      .   S
    Zr5    O65       2.14562      .   S
    C64    O66       1.11642  1_455   S
    Zr23   O66       2.34222      .   S
    C64    O67       0.91219      .   S
    N48    O67       1.59381  1_655   S
    C64    O68       1.04061      .   S
    Zr21   O68       2.17755      .   S
    C69    O70       1.12992      .   S
    Zr8    O70       2.30368      .   S
    C69    O71       0.75709      .   S
    Zr18   O71       1.86532  1_655   S
    C69    O72       1.12684      .   S
    Zr5    O72       2.31916      .   S
    C69    O73       0.98142      .   S
    Zr13   O73       2.28854      .   S
    C69    O74       0.72620      .   S
    Zr18   O74       1.90139  1_655   S
    C69    O75       1.05816      .   S
    N34    O75       2.04323      .   S
    C76    O77       1.11653      .   S
    Zr21   O77       2.34233      .   S
    C76    O78       0.98496      .   S
    Zr7    O78       2.14563      .   S
    C76    O79       0.91220      .   S
    N50    O79       1.59382      .   S
    C76    O80       1.04066      .   S
    Zr23   O80       2.17760      .   S
    C81    O82       1.04078      .   S
    Zr7    O82       2.17738      .   S
    C81    O83       0.91230      .   S
    N34    O83       1.59409      .   S
    C81    O84       1.11625      .   S
    Zr5    O84       2.34148      .   S
    C81    O85       0.75738      .   S
    Zr13   O85       1.68624      .   S
    C81    O86       0.98459      .   S
    Zr21   O86       2.14495      .   S
    C87    O88       1.14321  1_455   S
    Zr2    O88       2.30237      .   S
    C87    O89       1.00697      .   S
    N37    O89       1.88184      .   S
    C90    O91       0.91220      .   S
    N46    O91       1.59382      .   S
    C90    O92       1.04066      .   S
    Zr22   O92       2.17760      .   S
    C90    O93       0.98496      .   S
    Zr6    O93       2.14563      .   S
    C90    O94       1.11653      .   S
    Zr20   O94       2.34233      .   S
    C95    O96       1.04079      .   S
    Zr16   O96       2.17740      .   S
    C95    O97       0.91222      .   S
    N58    O97       1.59381      .   S
    C95    O98       0.98459      .   S
    Zr10   O98       2.14501      .   S
    C95    O99       1.11625      .   S
    Zr18   O99       2.34151      .   S
    C100   O101      0.69692      .   S
    Zr0    O101      1.73616      .   S
    C100   O102      1.00709      .   S
    N56    O102      1.88204      .   S
    C100   O103      0.69842      .   S
    Zr0    O103      1.73288      .   S
    C104   O105      1.14326      .   S
    Zr0    O105      2.30242      .   S
    C104   O106      1.00698      .   S
    N32    O106      1.88184      .   S
    C107   O108      0.98142      .   S
    Zr15   O108      2.28854      .   S
    C107   O109      0.72626      .   S
    Zr16   O109      1.90156      .   S
    C107   O110      1.12684      .   S
    Zr7    O110      2.31916      .   S
    C107   O111      1.12992      .   S
    Zr10   O111      2.30368      .   S
    C107   O112      0.75714      .   S
    Zr16   O112      1.86551      .   S
    C107   O113      1.05816      .   S
    N24    O113      2.04323      .   S
    C114   O115      1.00696      .   S
    N46    O115      1.88177      .   S
    C114   O116      0.69762      .   S
    Zr0    O116      1.73333  1_556   S
    C114   O117      0.69725      .   S
    Zr0    O117      1.73521  1_556   S
    C118   O119      0.75710      .   S
    Zr5    O119      1.86538  1_455   S
    C118   O120      1.12993      .   S
    Zr23   O120      2.30372      .   S
    C118   O121      1.05797      .   S
    N58    O121      2.04274      .   S
    C118   O122      0.72621      .   S
    Zr5    O122      1.90145  1_455   S
    C118   O123      1.12684      .   S
    Zr18   O123      2.31914      .   S
    C124   O125      1.00695      .   S
    N41    O125      1.88177      .   S
    C124   O126      0.69757      .   S
    Zr2    O126      1.73330  1_556   S
    C124   O127      0.69726      .   S
    Zr2    O127      1.73511  1_556   S
    C128   O129      0.91286      .   S
    N43    O129      1.59582  1_565   S
    C128   O130      1.11624      .   S
    Zr6    O130      2.34148      .   S
    C128   O131      0.75738      .   S
    Zr14   O131      1.68623      .   S
    C128   O132      0.98458      .   S
    Zr22   O132      2.14494      .   S
    C128   O133      1.04069      .   S
    Zr4    O133      2.17714  1_455   S
    C134   O135      0.91219      .   S
    N41    O135      1.59381  1_655   S
    C134   O136      1.11642  1_455   S
    Zr22   O136      2.34222      .   S
    C134   O137      0.98495      .   S
    Zr4    O137      2.14562      .   S
    C134   O138      1.04061      .   S
    Zr20   O138      2.17755      .   S
    C139   O140      1.05812      .   S
    N54    O140      2.04321      .   S
    C139   O141      0.75715      .   S
    Zr6    O141      1.86557      .   S
    C139   O142      1.12993      .   S
    Zr20   O142      2.30372      .   S
    C139   O143      0.72627      .   S
    Zr6    O143      1.90162      .   S
    C139   O144      1.12685      .   S
    Zr17   O144      2.31919  1_565   S
    C145   O146      1.05839      .   S
    N48    O146      2.04378      .   S
    C145   O147      0.72686      .   S
    Zr11   O147      1.90093      .   S
    C145   O148      1.12733      .   S
    Zr23   O148      2.32030      .   S
    C145   O149      0.75663      .   S
    Zr11   O149      1.86619      .   S
    C145   O150      1.12955      .   S
    Zr19   O150      2.30283      .   S
    C151   O152      1.00695      .   S
    N48    O152      1.88177      .   S
    C151   O153      0.69757      .   S
    Zr3    O153      1.73330  1_556   S
    C151   O154      0.69726      .   S
    Zr3    O154      1.73511  1_556   S
    C155   O156      1.00712      .   S
    N43    O156      1.88166  1_565   S
    C155   O157      1.00948      .   S
    Zr14   O157      2.26484      .   S
    C155   O158      1.14261      .   S
    Zr3    O158      2.30072  1_566   S
    C159   O160      1.12730      .   S
    Zr11   O160      2.32021      .   S
    C159   O161      0.72687      .   S
    Zr23   O161      1.90102      .   S
    C159   O162      1.05835      .   S
    N32    O162      2.04370      .   S
    C159   O163      0.75667      .   S
    Zr23   O163      1.86625      .   S
    C159   O164      1.12958      .   S
    Zr7    O164      2.30293      .   S
    C165   O166      1.14259      .   S
    Zr2    O166      2.30067  1_556   S
    C165   O167      1.00696      .   S
    N24    O167      1.88175      .   S
    C165   O168      1.00947      .   S
    Zr15   O168      2.26484      .   S
    C169   O170      0.98459      .   S
    Zr20   O170      2.14495      .   S
    C169   O171      1.11625      .   S
    Zr4    O171      2.34148      .   S
    C169   O172      0.75738      .   S
    Zr12   O172      1.68623      .   S
    C169   O173      0.91286      .   S
    N29    O173      1.59581  1_565   S
    C169   O174      1.04078      .   S
    Zr6    O174      2.17738      .   S
    C175   O176      1.11641  1_655   S
    Zr9    O176      2.34220      .   S
    C175   O177      0.98495      .   S
    Zr19   O177      2.14562      .   S
    C175   O178      1.04057      .   S
    Zr11   O178      2.17753      .   S
    C175   O179      0.91218      .   S
    N37    O179      1.59379  1_455   S
    C180   O181      1.04062      .   S
    Zr8    O181      2.17758      .   S
    C180   O182      0.91219      .   S
    N27    O182      1.59380      .   S
    C180   O183      0.98496      .   S
    Zr16   O183      2.14563      .   S
    C180   O184      1.11652      .   S
    Zr10   O184      2.34231      .   S
    C185   O186      0.91220      .   S
    N32    O186      1.59380      .   S
    C185   O187      1.11652      .   S
    Zr11   O187      2.34231      .   S
    C185   O188      0.98496      .   S
    Zr17   O188      2.14563      .   S
    C185   O189      1.04062      .   S
    Zr9    O189      2.17758      .   S
    C190   O191      1.00696      .   S
    N50    O191      1.88177      .   S
    C190   O192      0.69762      .   S
    Zr1    O192      1.73333  1_556   S
    C190   O193      0.69725      .   S
    Zr1    O193      1.73521  1_556   S
    C194   O195      1.00695      .   S
    N52    O195      1.88179      .   S
    C194   O196      1.14320  1_455   S
    Zr3    O196      2.30237  1_565   S
    C197   O198      1.05797      .   S
    N56    O198      2.04274      .   S
    C197   O199      0.72627      .   S
    Zr7    O199      1.90162      .   S
    C197   O200      1.12683      .   S
    Zr16   O200      2.31914      .   S
    C197   O201      0.75715      .   S
    Zr7    O201      1.86557      .   S
    C197   O202      1.12993      .   S
    Zr21   O202      2.30372      .   S
    C203   O204      0.69692      .   S
    Zr2    O204      1.73616      .   S
    C203   O205      1.00709      .   S
    N58    O205      1.88204      .   S
    C203   O206      0.69842      .   S
    Zr2    O206      1.73288      .   S
    C207   O208      1.04071      .   S
    Zr19   O208      2.17717  1_655   S
    C207   O209      0.98459      .   S
    Zr9    O209      2.14501      .   S
    C207   O210      1.11625      .   S
    Zr17   O210      2.34151      .   S
    C207   O211      0.91231      .   S
    N54    O211      1.59408  1_545   S
    C212   O213      0.75663      .   S
    Zr10   O213      1.86619      .   S
    C212   O214      1.12955      .   S
    Zr18   O214      2.30283      .   S
    C212   O215      0.72686      .   S
    Zr10   O215      1.90093      .   S
    C212   O216      1.12733      .   S
    Zr22   O216      2.32030      .   S
    C212   O217      1.05839      .   S
    N41    O217      2.04378      .   S
    C218   O219      1.05812      .   S
    N39    O219      2.04321      .   S
    C218   O220      0.72620      .   S
    Zr4    O220      1.90145  1_455   S
    C218   O221      1.12685      .   S
    Zr19   O221      2.31919  1_565   S
    C218   O222      0.75710      .   S
    Zr4    O222      1.86538  1_455   S
    C218   O223      1.12993      .   S
    Zr22   O223      2.30372      .   S
    C224   O225      1.05833      .   S
    N37    O225      2.04367      .   S
    C224   O226      0.75667      .   S
    Zr21   O226      1.86625      .   S
    C224   O227      1.12958      .   S
    Zr5    O227      2.30293      .   S
    C224   O228      1.12730      .   S
    Zr9    O228      2.32021      .   S
    C224   O229      0.72688      .   S
    Zr21   O229      1.90102      .   S
    C230   O231      1.12685      .   S
    Zr6    O231      2.31921  1_545   S
    C230   O232      0.98144      .   S
    Zr14   O232      2.28856  1_545   S
    C230   O233      0.72626      .   S
    Zr17   O233      1.90156      .   S
    C230   O234      1.12992      .   S
    Zr11   O234      2.30368      .   S
    C230   O235      0.75714      .   S
    Zr17   O235      1.86551      .   S
    C230   O236      1.05821      .   S
    N43    O236      2.04330      .   S
    C237   O238      0.91230      .   S
    N24    O238      1.59409      .   S
    C237   O239      1.11625      .   S
    Zr7    O239      2.34148      .   S
    C237   O240      0.75738      .   S
    Zr15   O240      1.68624      .   S
    C237   O241      0.98459      .   S
    Zr23   O241      2.14495      .   S
    C237   O242      1.04069      .   S
    Zr5    O242      2.17715  1_455   S
    C243   O244      1.14261      .   S
    Zr1    O244      2.30072  1_566   S
    C243   O245      1.00712      .   S
    N29    O245      1.88166  1_565   S
    C243   O246      1.00948      .   S
    Zr12   O246      2.26484      .   S
    C247   O248      1.12992      .   S
    Zr9    O248      2.30368      .   S
    C247   O249      0.75709      .   S
    Zr19   O249      1.86532  1_655   S
    C247   O250      1.05821      .   S
    N29    O250      2.04330      .   S
    C247   O251      1.12685      .   S
    Zr4    O251      2.31922  1_545   S
    C247   O252      0.98144      .   S
    Zr12   O252      2.28856  1_545   S
    C247   O253      0.72620      .   S
    Zr19   O253      1.90139  1_655   S
    C254   O255      1.12730      .   S
    Zr8    O255      2.32021      .   S
    C254   O256      0.72688      .   S
    Zr20   O256      1.90102      .   S
    C254   O257      1.05835      .   S
    N52    O257      2.04371      .   S
    C254   O258      0.75667      .   S
    Zr20   O258      1.86625      .   S
    C254   O259      1.12958      .   S
    Zr4    O259      2.30293      .   S
    C260   O261      0.69692      .   S
    Zr3    O261      1.73616      .   S
    C260   O262      0.69842      .   S
    Zr3    O262      1.73288      .   S
    C260   O263      1.00693      .   S
    N39    O263      1.88153  1_545   S
    C264   O265      0.98459      .   S
    Zr8    O265      2.14501      .   S
    C264   O266      1.11625      .   S
    Zr16   O266      2.34151      .   S
    C264   O267      1.04071      .   S
    Zr18   O267      2.17717  1_655   S
    C264   O268      0.91222      .   S
    N56    O268      1.59381      .   S
    C269   O270      0.98459      .   S
    Zr11   O270      2.14501      .   S
    C269   O271      1.11625      .   S
    Zr19   O271      2.34151      .   S
    C269   O272      1.04079      .   S
    Zr17   O272      2.17740      .   S
    C269   O273      0.91231      .   S
    N39    O273      1.59408  1_545   S
    C274   O275      1.12730      .   S
    Zr10   O275      2.32021      .   S
    C274   O276      0.72688      .   S
    Zr22   O276      1.90102      .   S
    C274   O277      0.75667      .   S
    Zr22   O277      1.86625      .   S
    C274   O278      1.12958      .   S
    Zr6    O278      2.30293      .   S
    C274   O279      1.05835      .   S
    N27    O279      2.04369      .   S
    C280   O281      0.72686      .   S
    Zr8    O281      1.90093      .   S
    C280   O282      1.12733      .   S
    Zr20   O282      2.32030      .   S
    C280   O283      0.75663      .   S
    Zr8    O283      1.86619      .   S
    C280   O284      1.12955      .   S
    Zr16   O284      2.30283      .   S
    C280   O285      1.05840      .   S
    N46    O285      2.04381      .   S
    C286   O287      0.72686      .   S
    Zr9    O287      1.90093      .   S
    C286   O288      1.12733      .   S
    Zr21   O288      2.32030      .   S
    C286   O289      1.05840      .   S
    N50    O289      2.04381      .   S
    C286   O290      0.75663      .   S
    Zr9    O290      1.86619      .   S
    C286   O291      1.12955      .   S
    Zr17   O291      2.30283      .   S
    C292   O293      1.04060      .   S
    Zr10   O293      2.17758      .   S
    C292   O294      0.91218      .   S
    N52    O294      1.59381  1_455   S
    C292   O295      1.11643  1_655   S
    Zr8    O295      2.34223      .   S
    C292   O296      0.98496      .   S
    Zr18   O296      2.14563      .   S
    C297   O298      1.00698      .   S
    N27    O298      1.88184      .   S
    C297   O299      1.14326      .   S
    Zr1    O299      2.30242  1_565   S
    C300   O301      0.69692      .   S
    Zr1    O301      1.73616      .   S
    C300   O302      0.69842      .   S
    Zr1    O302      1.73288      .   S
    C300   O303      1.00693      .   S
    N54    O303      1.88153  1_545   S
