# CIF file generated by openbabel 2.4.90, see http://openbabel.sf.net
data_I
_chemical_name_common ''
_cell_length_a 12.318
_cell_length_b 21.045
_cell_length_c 16.643
_cell_angle_alpha 71.59
_cell_angle_beta 83.891
_cell_angle_gamma 90.005
_space_group_name_H-M_alt 'P 1'
_space_group_name_Hall 'P 1'
loop_
    _symmetry_equiv_pos_as_xyz
    x,y,z
loop_
    _atom_site_label
    _atom_site_type_symbol
    _atom_site_fract_x
    _atom_site_fract_y
    _atom_site_fract_z
    _atom_site_occupancy
    C0      C    0.37506   0.45213   0.99997   1.000
    C1      C    0.37506   0.95213   0.99997   1.000
    C2      C    0.87507   0.45213   0.99997   1.000
    C3      C    0.87508   0.95213   0.99997   1.000
    C4      C    0.02084   0.09187   0.39623   1.000
    C5      C    0.02084   0.59187   0.39623   1.000
    C6      C    0.52085   0.09187   0.39623   1.000
    C7      C    0.52085   0.59187   0.39623   1.000
    C8      C    0.22919   0.29006   0.60372   1.000
    C9      C    0.22919   0.79006   0.60372   1.000
    C10     C    0.72920   0.29006   0.60372   1.000
    C11     C    0.72921   0.79006   0.60372   1.000
    C12     C    0.12496   0.04787   0.30000   1.000
    C13     C    0.12497   0.54787   0.30000   1.000
    C14     C    0.62498   0.04787   0.30000   1.000
    C15     C    0.62498   0.54787   0.30000   1.000
    C16     C    0.47919   0.40812   0.60376   1.000
    C17     C    0.47919   0.90812   0.60376   1.000
    C18     C    0.97920   0.40812   0.60376   1.000
    C19     C    0.97920   0.90812   0.60376   1.000
    C20     C    0.27083   0.20993   0.39627   1.000
    C21     C    0.27084   0.70993   0.39627   1.000
    C22     C    0.77085   0.20993   0.39627   1.000
    C23     C    0.77085   0.70993   0.39627   1.000
    C24     C    0.14998   0.17129   0.76014   1.000
    C25     C    0.14999   0.67129   0.76014   1.000
    C26     C    0.65000   0.17129   0.76014   1.000
    C27     C    0.65000   0.67129   0.76014   1.000
    C28     C    0.09999   0.05106   0.23990   1.000
    C29     C    0.10000   0.55105   0.23995   1.000
    C30     C    0.60001   0.05106   0.23990   1.000
    C31     C    0.60001   0.55105   0.23995   1.000
    C32     C    0.38387   0.12701   0.78150   1.000
    C33     C    0.38388   0.62701   0.78150   1.000
    C34     C    0.88389   0.12701   0.78154   1.000
    C35     C    0.88389   0.62701   0.78150   1.000
    C36     C    0.46920   0.06544   0.76257   1.000
    C37     C    0.46921   0.56544   0.76257   1.000
    C38     C    0.96922   0.06544   0.76257   1.000
    C39     C    0.96922   0.56544   0.76257   1.000
    C40     C    0.02156   0.09162   0.63349   1.000
    C41     C    0.02156   0.59162   0.63349   1.000
    C42     C    0.52158   0.09162   0.63349   1.000
    C43     C    0.52158   0.59162   0.63349   1.000
    C44     C    0.43027   0.15635   0.59958   1.000
    C45     C    0.43027   0.65635   0.59958   1.000
    C46     C    0.93028   0.15635   0.59958   1.000
    C47     C    0.93029   0.65635   0.59958   1.000
    C48     C    0.22861   0.40831   0.36677   1.000
    C49     C    0.22862   0.90831   0.36677   1.000
    C50     C    0.72863   0.40831   0.36677   1.000
    C51     C    0.72863   0.90831   0.36677   1.000
    C52     C    0.31980   0.45623   0.40060   1.000
    C53     C    0.31980   0.95623   0.40060   1.000
    C54     C    0.81981   0.45623   0.40060   1.000
    C55     C    0.81982   0.95623   0.40060   1.000
    C56     C    0.36615   0.01748   0.21860   1.000
    C57     C    0.36615   0.51748   0.21860   1.000
    C58     C    0.86617   0.01748   0.21860   1.000
    C59     C    0.86617   0.51748   0.21860   1.000
    C60     C    0.28066   0.44647   0.23765   1.000
    C61     C    0.28066   0.94647   0.23765   1.000
    C62     C    0.78068   0.44647   0.23765   1.000
    C63     C    0.78068   0.94647   0.23765   1.000
    C64     C    0.35004   0.32871   0.23985   1.000
    C65     C    0.35005   0.82871   0.23985   1.000
    C66     C    0.85006   0.32871   0.23985   1.000
    C67     C    0.85006   0.82871   0.23985   1.000
    C68     C    0.40003   0.44894   0.76004   1.000
    C69     C    0.40003   0.94894   0.76004   1.000
    C70     C    0.90005   0.44894   0.76004   1.000
    C71     C    0.90005   0.94894   0.76004   1.000
    C72     C    0.11615   0.37298   0.21845   1.000
    C73     C    0.11615   0.87298   0.21845   1.000
    C74     C    0.61617   0.37298   0.21845   1.000
    C75     C    0.61617   0.87298   0.21845   1.000
    C76     C    0.03082   0.43456   0.23742   1.000
    C77     C    0.03083   0.93456   0.23742   1.000
    C78     C    0.53084   0.43456   0.23742   1.000
    C79     C    0.53084   0.93455   0.23742   1.000
    C80     C    0.47846   0.40837   0.36650   1.000
    C81     C    0.47846   0.90837   0.36650   1.000
    C82     C    0.97847   0.40837   0.36650   1.000
    C83     C    0.97847   0.90837   0.36650   1.000
    C84     C    0.06975   0.34365   0.40041   1.000
    C85     C    0.06975   0.84365   0.40041   1.000
    C86     C    0.56977   0.34365   0.40041   1.000
    C87     C    0.56977   0.84365   0.40041   1.000
    C88     C    0.27140   0.09168   0.63322   1.000
    C89     C    0.27141   0.59168   0.63322   1.000
    C90     C    0.77142   0.09168   0.63322   1.000
    C91     C    0.77142   0.59168   0.63322   1.000
    C92     C    0.18022   0.04376   0.59939   1.000
    C93     C    0.18022   0.54376   0.59939   1.000
    C94     C    0.68024   0.04376   0.59939   1.000
    C95     C    0.68024   0.54376   0.59939   1.000
    C96     C    0.13387   0.48252   0.78100   1.000
    C97     C    0.13387   0.98252   0.78139   1.000
    C98     C    0.63389   0.48252   0.78100   1.000
    C99     C    0.63389   0.98252   0.78139   1.000
    C100    C    0.21936   0.05352   0.76234   1.000
    C101    C    0.21937   0.55352   0.76234   1.000
    C102    C    0.71938   0.05352   0.76234   1.000
    C103    C    0.71938   0.55352   0.76234   1.000
    C104    C    0.01398   0.10095   0.85882   1.000
    C105    C    0.01398   0.60095   0.85882   1.000
    C106    C    0.51399   0.10095   0.85882   1.000
    C107    C    0.51400   0.60095   0.85882   1.000
    C108    C    0.47019   0.11416   0.77418   1.000
    C109    C    0.47020   0.61416   0.77418   1.000
    C110    C    0.97021   0.11416   0.77418   1.000
    C111    C    0.97021   0.61416   0.77418   1.000
    C112    C    0.02819   0.16868   0.69472   1.000
    C113    C    0.02820   0.66868   0.69472   1.000
    C114    C    0.52821   0.16868   0.69472   1.000
    C115    C    0.52821   0.66868   0.69472   1.000
    C116    C    0.01378   0.14612   0.61669   1.000
    C117    C    0.01378   0.64612   0.61669   1.000
    C118    C    0.51379   0.14612   0.61669   1.000
    C119    C    0.51380   0.64612   0.61669   1.000
    C120    C    0.08960   0.17770   0.53564   1.000
    C121    C    0.08961   0.67770   0.53564   1.000
    C122    C    0.58962   0.17770   0.53564   1.000
    C123    C    0.58962   0.67770   0.53564   1.000
    C124    C    0.47153   0.23703   0.68270   1.000
    C125    C    0.47154   0.73703   0.68270   1.000
    C126    C    0.97155   0.23703   0.68274   1.000
    C127    C    0.97155   0.73703   0.68270   1.000
    C128    C    0.16045   0.44563   0.46448   1.000
    C129    C    0.16045   0.94563   0.46448   1.000
    C130    C    0.66047   0.44563   0.46448   1.000
    C131    C    0.66047   0.94563   0.46448   1.000
    C132    C    0.23630   0.45448   0.38346   1.000
    C133    C    0.23630   0.95448   0.38346   1.000
    C134    C    0.73632   0.45448   0.38346   1.000
    C135    C    0.73632   0.95448   0.38346   1.000
    C136    C    0.22182   0.01592   0.30538   1.000
    C137    C    0.22182   0.51592   0.30538   1.000
    C138    C    0.72183   0.01592   0.30538   1.000
    C139    C    0.72183   0.51592   0.30538   1.000
    C140    C    0.27980   0.50100   0.22598   1.000
    C141    C    0.27980   0.00000   0.22598   1.000
    C142    C    0.77981   0.50100   0.22598   1.000
    C143    C    0.77982   0.00000   0.22598   1.000
    C144    C    0.23599   0.03004   0.14134   1.000
    C145    C    0.23599   0.53004   0.14134   1.000
    C146    C    0.73600   0.03004   0.14134   1.000
    C147    C    0.73601   0.53004   0.14134   1.000
    C148    C    0.27845   0.07834   0.31728   1.000
    C149    C    0.27846   0.57834   0.31728   1.000
    C150    C    0.77847   0.07834   0.31728   1.000
    C151    C    0.77847   0.57834   0.31728   1.000
    C152    C    0.48605   0.39905   0.14117   1.000
    C153    C    0.48605   0.89905   0.14117   1.000
    C154    C    0.98606   0.39905   0.14117   1.000
    C155    C    0.98606   0.89905   0.14117   1.000
    C156    C    0.02983   0.38584   0.22582   1.000
    C157    C    0.02983   0.88583   0.22582   1.000
    C158    C    0.52984   0.38584   0.22582   1.000
    C159    C    0.52985   0.88583   0.22582   1.000
    C160    C    0.47183   0.33132   0.30528   1.000
    C161    C    0.47183   0.83132   0.30528   1.000
    C162    C    0.97184   0.33132   0.30528   1.000
    C163    C    0.97185   0.83132   0.30528   1.000
    C164    C    0.48624   0.35387   0.38330   1.000
    C165    C    0.48624   0.85387   0.38330   1.000
    C166    C    0.98625   0.35387   0.38330   1.000
    C167    C    0.98626   0.85387   0.38330   1.000
    C168    C    0.41042   0.32230   0.46436   1.000
    C169    C    0.41042   0.82230   0.46436   1.000
    C170    C    0.91043   0.32230   0.46436   1.000
    C171    C    0.91044   0.82230   0.46436   1.000
    C172    C    0.02849   0.26296   0.31725   1.000
    C173    C    0.02849   0.76296   0.31725   1.000
    C174    C    0.52850   0.26296   0.31725   1.000
    C175    C    0.52851   0.76296   0.31725   1.000
    C176    C    0.33957   0.05437   0.53551   1.000
    C177    C    0.33957   0.55437   0.53551   1.000
    C178    C    0.83958   0.05437   0.53551   1.000
    C179    C    0.83959   0.55437   0.53551   1.000
    C180    C    0.26372   0.04552   0.61653   1.000
    C181    C    0.26372   0.54552   0.61653   1.000
    C182    C    0.76373   0.04552   0.61653   1.000
    C183    C    0.76374   0.54552   0.61653   1.000
    C184    C    0.27821   0.48407   0.69462   1.000
    C185    C    0.27821   0.98407   0.69462   1.000
    C186    C    0.77822   0.48407   0.69462   1.000
    C187    C    0.77822   0.98407   0.69462   1.000
    C188    C    0.22022   0.99899   0.77402   1.000
    C189    C    0.22023   0.49899   0.77402   1.000
    C190    C    0.72024   0.99899   0.77402   1.000
    C191    C    0.72024   0.49899   0.77402   1.000
    C192    C    0.26404   0.46996   0.85860   1.000
    C193    C    0.26404   0.96995   0.85860   1.000
    C194    C    0.76405   0.46996   0.85860   1.000
    C195    C    0.76405   0.96995   0.85860   1.000
    C196    C    0.22157   0.42165   0.68272   1.000
    C197    C    0.22157   0.92165   0.68272   1.000
    C198    C    0.72158   0.42165   0.68272   1.000
    C199    C    0.72159   0.92165   0.68272   1.000
    C200    C    0.09653   0.13306   0.86856   1.000
    C201    C    0.09653   0.63306   0.86856   1.000
    C202    C    0.59654   0.13306   0.86856   1.000
    C203    C    0.59655   0.63306   0.86856   1.000
    C204    C    0.46773   0.05265   0.92290   1.000
    C205    C    0.46773   0.55265   0.92290   1.000
    C206    C    0.96774   0.05265   0.92290   1.000
    C207    C    0.96774   0.55265   0.92290   1.000
    C208    C    0.10194   0.14458   0.48311   1.000
    C209    C    0.10195   0.64458   0.48311   1.000
    C210    C    0.60196   0.14458   0.48311   1.000
    C211    C    0.60196   0.64458   0.48311   1.000
    C212    C    0.13956   0.23364   0.52091   1.000
    C213    C    0.13956   0.73364   0.52091   1.000
    C214    C    0.63958   0.23364   0.52091   1.000
    C215    C    0.63958   0.73364   0.52091   1.000
    C216    C    0.03253   0.28926   0.66698   1.000
    C217    C    0.03253   0.78926   0.66698   1.000
    C218    C    0.53254   0.28926   0.66698   1.000
    C219    C    0.53254   0.78926   0.66698   1.000
    C220    C    0.36848   0.23436   0.68747   1.000
    C221    C    0.36848   0.73436   0.68747   1.000
    C222    C    0.86849   0.23436   0.68747   1.000
    C223    C    0.86849   0.73436   0.68747   1.000
    C224    C    0.14366   0.17493   0.70002   1.000
    C225    C    0.14367   0.67493   0.70002   1.000
    C226    C    0.64368   0.17493   0.70002   1.000
    C227    C    0.64368   0.67493   0.70002   1.000
    C228    C    0.11064   0.49428   0.47916   1.000
    C229    C    0.11064   0.99428   0.47916   1.000
    C230    C    0.61065   0.49428   0.47916   1.000
    C231    C    0.61065   0.99428   0.47916   1.000
    C232    C    0.14802   0.38629   0.51705   1.000
    C233    C    0.14802   0.88628   0.51705   1.000
    C234    C    0.64803   0.38629   0.51705   1.000
    C235    C    0.64803   0.88628   0.51705   1.000
    C236    C    0.28231   0.01383   0.07724   1.000
    C237    C    0.28232   0.51383   0.07724   1.000
    C238    C    0.78233   0.01383   0.07724   1.000
    C239    C    0.78233   0.51383   0.07724   1.000
    C240    C    0.15326   0.06687   0.13164   1.000
    C241    C    0.15326   0.56687   0.13164   1.000
    C242    C    0.65328   0.06687   0.13164   1.000
    C243    C    0.65328   0.56687   0.13164   1.000
    C244    C    0.21742   0.12269   0.33304   1.000
    C245    C    0.21743   0.62269   0.33304   1.000
    C246    C    0.71744   0.12269   0.33304   1.000
    C247    C    0.71744   0.62269   0.33304   1.000
    C248    C    0.38150   0.07806   0.31259   1.000
    C249    C    0.38150   0.57806   0.31259   1.000
    C250    C    0.88151   0.07806   0.31259   1.000
    C251    C    0.88152   0.57806   0.31259   1.000
    C252    C    0.10633   0.02478   0.30011   1.000
    C253    C    0.10634   0.52478   0.30011   1.000
    C254    C    0.60635   0.02478   0.30011   1.000
    C255    C    0.60635   0.52478   0.30011   1.000
    C256    C    0.40350   0.36693   0.13143   1.000
    C257    C    0.40350   0.86693   0.13143   1.000
    C258    C    0.90351   0.36693   0.13143   1.000
    C259    C    0.90351   0.86693   0.13143   1.000
    C260    C    0.03230   0.44734   0.07710   1.000
    C261    C    0.03230   0.94734   0.07710   1.000
    C262    C    0.53231   0.44734   0.07710   1.000
    C263    C    0.53231   0.94734   0.07710   1.000
    C264    C    0.39808   0.35541   0.51689   1.000
    C265    C    0.39808   0.85541   0.51689   1.000
    C266    C    0.89810   0.35541   0.51689   1.000
    C267    C    0.89810   0.85541   0.51689   1.000
    C268    C    0.36046   0.26636   0.47909   1.000
    C269    C    0.36046   0.76635   0.47909   1.000
    C270    C    0.86048   0.26636   0.47909   1.000
    C271    C    0.86048   0.76635   0.47909   1.000
    C272    C    0.46749   0.21073   0.33301   1.000
    C273    C    0.46750   0.71073   0.33301   1.000
    C274    C    0.96751   0.21073   0.33301   1.000
    C275    C    0.96751   0.71073   0.33301   1.000
    C276    C    0.13154   0.26564   0.31253   1.000
    C277    C    0.13155   0.76563   0.31253   1.000
    C278    C    0.63156   0.26564   0.31253   1.000
    C279    C    0.63156   0.76563   0.31253   1.000
    C280    C    0.35636   0.32507   0.29997   1.000
    C281    C    0.35636   0.82506   0.29997   1.000
    C282    C    0.85638   0.32507   0.29997   1.000
    C283    C    0.85638   0.82506   0.29997   1.000
    C284    C    0.38939   0.00572   0.52084   1.000
    C285    C    0.38939   0.50572   0.52084   1.000
    C286    C    0.88940   0.00572   0.52084   1.000
    C287    C    0.88941   0.50572   0.52084   1.000
    C288    C    0.35201   0.11371   0.48295   1.000
    C289    C    0.35201   0.61371   0.48295   1.000
    C290    C    0.85202   0.11371   0.48295   1.000
    C291    C    0.85202   0.61371   0.48295   1.000
    C292    C    0.21771   0.48616   0.92276   1.000
    C293    C    0.21771   0.98616   0.92276   1.000
    C294    C    0.71772   0.48616   0.92276   1.000
    C295    C    0.71773   0.98616   0.92276   1.000
    C296    C    0.34676   0.43312   0.86835   1.000
    C297    C    0.34677   0.93312   0.86835   1.000
    C298    C    0.84678   0.43312   0.86835   1.000
    C299    C    0.84678   0.93312   0.86835   1.000
    C300    C    0.28260   0.37731   0.66696   1.000
    C301    C    0.28260   0.87731   0.66696   1.000
    C302    C    0.78261   0.37731   0.66696   1.000
    C303    C    0.78262   0.87731   0.66696   1.000
    C304    C    0.11852   0.42194   0.68740   1.000
    C305    C    0.11853   0.92194   0.68740   1.000
    C306    C    0.61854   0.42194   0.68740   1.000
    C307    C    0.61854   0.92194   0.68740   1.000
    C308    C    0.39369   0.47522   0.69989   1.000
    C309    C    0.39369   0.97522   0.69989   1.000
    C310    C    0.89370   0.47522   0.69989   1.000
    C311    C    0.89371   0.97522   0.69989   1.000
    O312    O    0.00918   0.42320   0.10914   1.000
    O313    O    0.00918   0.92319   0.10914   1.000
    O314    O    0.50918   0.42320   0.10914   1.000
    O315    O    0.50918   0.92319   0.10914   1.000
    O316    O    0.75917   0.52194   0.10929   1.000
    O317    O    0.82870   0.48298   0.03861   1.000
    O318    O    0.75917   0.02194   0.10929   1.000
    O319    O    0.82870   0.98298   0.03861   1.000
    O320    O    0.25915   0.52194   0.10929   1.000
    O321    O    0.32869   0.48298   0.03861   1.000
    O322    O    0.25915   0.02194   0.10929   1.000
    O323    O    0.32869   0.98298   0.03861   1.000
    O324    O    0.44477   0.38299   0.13630   1.000
    O325    O    0.44477   0.88299   0.13630   1.000
    O326    O    0.94478   0.38299   0.13630   1.000
    O327    O    0.94479   0.88299   0.13630   1.000
    O328    O    0.69464   0.54846   0.13649   1.000
    O329    O    0.19462   0.04846   0.13649   1.000
    O330    O    0.19463   0.54846   0.13649   1.000
    O331    O    0.69464   0.04846   0.13649   1.000
    O332    O    0.00795   0.89244   0.18350   1.000
    O333    O    0.00794   0.39244   0.18350   1.000
    O334    O    0.50795   0.89244   0.18350   1.000
    O335    O    0.50794   0.39244   0.18350   1.000
    O336    O    0.75791   0.51552   0.18366   1.000
    O337    O    0.75791   0.01502   0.18366   1.000
    O338    O    0.25790   0.51552   0.18366   1.000
    O339    O    0.25790   0.01502   0.18366   1.000
    O340    O    0.57301   0.87941   0.22214   1.000
    O341    O    0.57300   0.37941   0.22214   1.000
    O342    O    0.07299   0.87941   0.22214   1.000
    O343    O    0.07299   0.37941   0.22214   1.000
    O344    O    0.32298   0.00874   0.22229   1.000
    O345    O    0.32298   0.50924   0.22229   1.000
    O346    O    0.82299   0.00874   0.22229   1.000
    O347    O    0.82299   0.50924   0.22229   1.000
    O348    O    0.53034   0.91019   0.23162   1.000
    O349    O    0.50084   0.85858   0.26555   1.000
    O350    O    0.53034   0.41020   0.23162   1.000
    O351    O    0.50084   0.35858   0.26555   1.000
    O352    O    0.03033   0.91019   0.23162   1.000
    O353    O    0.00084   0.85858   0.26555   1.000
    O354    O    0.03033   0.41020   0.23162   1.000
    O355    O    0.00084   0.35858   0.26555   1.000
    O356    O    0.28023   0.47374   0.23182   1.000
    O357    O    0.25081   0.50846   0.26568   1.000
    O358    O    0.78025   0.97324   0.23182   1.000
    O359    O    0.75082   0.00796   0.26568   1.000
    O360    O    0.28023   0.97324   0.23182   1.000
    O361    O    0.25081   0.00796   0.26568   1.000
    O362    O    0.78025   0.47374   0.23182   1.000
    O363    O    0.75082   0.50846   0.26568   1.000
    O364    O    0.85322   0.82689   0.26991   1.000
    O365    O    0.85322   0.32689   0.26991   1.000
    O366    O    0.35320   0.82689   0.26991   1.000
    O367    O    0.35320   0.32689   0.26991   1.000
    O368    O    0.10316   0.03792   0.27001   1.000
    O369    O    0.60318   0.03792   0.27001   1.000
    O370    O    0.10317   0.53792   0.27003   1.000
    O371    O    0.60318   0.53792   0.27003   1.000
    O372    O    0.91411   0.82819   0.30263   1.000
    O373    O    0.91411   0.32819   0.30263   1.000
    O374    O    0.41410   0.82819   0.30263   1.000
    O375    O    0.41409   0.32819   0.30263   1.000
    O376    O    0.61567   0.53632   0.30006   1.000
    O377    O    0.11565   0.53632   0.30006   1.000
    O378    O    0.61566   0.03632   0.30006   1.000
    O379    O    0.11565   0.03632   0.30006   1.000
    O380    O    0.50017   0.29714   0.31127   1.000
    O381    O    0.47903   0.34259   0.34429   1.000
    O382    O    0.50017   0.79714   0.31127   1.000
    O383    O    0.47904   0.84259   0.34429   1.000
    O384    O    0.00016   0.29714   0.31127   1.000
    O385    O    0.97905   0.34259   0.34429   1.000
    O386    O    0.00017   0.79714   0.31127   1.000
    O387    O    0.97905   0.84259   0.34429   1.000
    O388    O    0.25013   0.04713   0.31133   1.000
    O389    O    0.22906   0.98520   0.34442   1.000
    O390    O    0.25014   0.54713   0.31133   1.000
    O391    O    0.22906   0.48520   0.34442   1.000
    O392    O    0.75015   0.04713   0.31133   1.000
    O393    O    0.72907   0.98520   0.34442   1.000
    O394    O    0.75015   0.54713   0.31133   1.000
    O395    O    0.72907   0.48520   0.34442   1.000
    O396    O    0.08002   0.26430   0.31489   1.000
    O397    O    0.20119   0.23778   0.35440   1.000
    O398    O    0.08002   0.76430   0.31489   1.000
    O399    O    0.20119   0.73778   0.35440   1.000
    O400    O    0.58003   0.26430   0.31489   1.000
    O401    O    0.70120   0.23778   0.35440   1.000
    O402    O    0.58003   0.76430   0.31489   1.000
    O403    O    0.70121   0.73778   0.35440   1.000
    O404    O    0.82999   0.57820   0.31494   1.000
    O405    O    0.82999   0.07820   0.31494   1.000
    O406    O    0.32998   0.57820   0.31494   1.000
    O407    O    0.32998   0.07820   0.31494   1.000
    O408    O    0.99800   0.23685   0.32513   1.000
    O409    O    0.49800   0.73685   0.32513   1.000
    O410    O    0.49800   0.23685   0.32513   1.000
    O411    O    0.99800   0.73685   0.32513   1.000
    O412    O    0.74795   0.60052   0.32516   1.000
    O413    O    0.74795   0.10052   0.32516   1.000
    O414    O    0.24794   0.60052   0.32516   1.000
    O415    O    0.24794   0.10052   0.32516   1.000
    O416    O    0.48235   0.38112   0.37490   1.000
    O417    O    0.48235   0.88112   0.37490   1.000
    O418    O    0.98236   0.38112   0.37490   1.000
    O419    O    0.98237   0.88112   0.37490   1.000
    O420    O    0.73247   0.43140   0.37512   1.000
    O421    O    0.23246   0.43140   0.37512   1.000
    O422    O    0.23246   0.93139   0.37512   1.000
    O423    O    0.73247   0.93139   0.37512   1.000
    O424    O    0.02801   0.84876   0.39186   1.000
    O425    O    0.94835   0.83808   0.42383   1.000
    O426    O    0.02800   0.34876   0.39186   1.000
    O427    O    0.94834   0.33808   0.42383   1.000
    O428    O    0.52801   0.84876   0.39186   1.000
    O429    O    0.44833   0.83808   0.42383   1.000
    O430    O    0.52800   0.34876   0.39186   1.000
    O431    O    0.44833   0.33808   0.42383   1.000
    O432    O    0.27805   0.45536   0.39203   1.000
    O433    O    0.19838   0.45005   0.42397   1.000
    O434    O    0.77807   0.95535   0.39203   1.000
    O435    O    0.69839   0.95005   0.42397   1.000
    O436    O    0.77806   0.45536   0.39203   1.000
    O437    O    0.69839   0.45005   0.42397   1.000
    O438    O    0.27805   0.95535   0.39203   1.000
    O439    O    0.19838   0.95005   0.42397   1.000
    O440    O    0.06139   0.61823   0.43967   1.000
    O441    O    0.56140   0.11823   0.43967   1.000
    O442    O    0.56141   0.61823   0.43967   1.000
    O443    O    0.06139   0.11823   0.43967   1.000
    O444    O    0.31142   0.66182   0.43961   1.000
    O445    O    0.81144   0.66182   0.43961   1.000
    O446    O    0.81143   0.16182   0.43961   1.000
    O447    O    0.31142   0.16182   0.43961   1.000
    O448    O    0.88545   0.29433   0.47173   1.000
    O449    O    0.90426   0.33886   0.49063   1.000
    O450    O    0.38544   0.79433   0.47173   1.000
    O451    O    0.40425   0.83885   0.49063   1.000
    O452    O    0.38544   0.29433   0.47173   1.000
    O453    O    0.40425   0.33886   0.49063   1.000
    O454    O    0.88546   0.79433   0.47173   1.000
    O455    O    0.90427   0.83885   0.49063   1.000
    O456    O    0.13554   0.46995   0.47182   1.000
    O457    O    0.15423   0.41596   0.49077   1.000
    O458    O    0.63556   0.46995   0.47182   1.000
    O459    O    0.65425   0.41596   0.49077   1.000
    O460    O    0.13555   0.96995   0.47182   1.000
    O461    O    0.15424   0.91596   0.49077   1.000
    O462    O    0.63556   0.96995   0.47182   1.000
    O463    O    0.65425   0.91596   0.49077   1.000
    O464    O    0.34579   0.58404   0.50923   1.000
    O465    O    0.84580   0.08404   0.50923   1.000
    O466    O    0.34579   0.08404   0.50923   1.000
    O467    O    0.84581   0.58404   0.50923   1.000
    O468    O    0.09577   0.16114   0.50938   1.000
    O469    O    0.09578   0.66114   0.50938   1.000
    O470    O    0.59579   0.16114   0.50938   1.000
    O471    O    0.59579   0.66114   0.50938   1.000
    O472    O    0.93865   0.88177   0.56033   1.000
    O473    O    0.93865   0.38177   0.56033   1.000
    O474    O    0.43864   0.88177   0.56033   1.000
    O475    O    0.43863   0.38177   0.56033   1.000
    O476    O    0.18860   0.33817   0.56039   1.000
    O477    O    0.68862   0.83817   0.56039   1.000
    O478    O    0.68862   0.33817   0.56039   1.000
    O479    O    0.18861   0.83817   0.56039   1.000
    O480    O    0.86449   0.03004   0.52818   1.000
    O481    O    0.36448   0.53004   0.52818   1.000
    O482    O    0.86450   0.53004   0.52818   1.000
    O483    O    0.36448   0.03004   0.52818   1.000
    O484    O    0.11458   0.20567   0.52828   1.000
    O485    O    0.11459   0.70567   0.52828   1.000
    O486    O    0.61460   0.20567   0.52828   1.000
    O487    O    0.61460   0.70567   0.52828   1.000
    O488    O    0.30165   0.04994   0.57602   1.000
    O489    O    0.80166   0.54994   0.57602   1.000
    O490    O    0.80166   0.04994   0.57602   1.000
    O491    O    0.30165   0.54994   0.57602   1.000
    O492    O    0.55171   0.16191   0.57617   1.000
    O493    O    0.05169   0.16191   0.57617   1.000
    O494    O    0.55171   0.66191   0.57617   1.000
    O495    O    0.05169   0.66191   0.57617   1.000
    O496    O    0.72199   0.04464   0.60796   1.000
    O497    O    0.72199   0.54464   0.60796   1.000
    O498    O    0.22197   0.54464   0.60796   1.000
    O499    O    0.22197   0.04464   0.60796   1.000
    O500    O    0.47203   0.15124   0.60814   1.000
    O501    O    0.47204   0.65123   0.60814   1.000
    O502    O    0.97203   0.15124   0.60814   1.000
    O503    O    0.97204   0.65123   0.60814   1.000
    O504    O    0.29884   0.76221   0.64560   1.000
    O505    O    0.79885   0.26221   0.64560   1.000
    O506    O    0.79885   0.76221   0.64560   1.000
    O507    O    0.29883   0.26221   0.64560   1.000
    O508    O    0.54886   0.41503   0.64558   1.000
    O509    O    0.54887   0.91503   0.64558   1.000
    O510    O    0.04886   0.41503   0.64558   1.000
    O511    O    0.04887   0.91503   0.64558   1.000
    O512    O    0.76758   0.56860   0.62488   1.000
    O513    O    0.77098   0.51479   0.65558   1.000
    O514    O    0.76758   0.06860   0.62488   1.000
    O515    O    0.77098   0.01479   0.65558   1.000
    O516    O    0.26757   0.56860   0.62488   1.000
    O517    O    0.27097   0.51479   0.65558   1.000
    O518    O    0.26756   0.06860   0.62488   1.000
    O519    O    0.27097   0.01479   0.65558   1.000
    O520    O    0.01767   0.61887   0.62509   1.000
    O521    O    0.02099   0.65740   0.65571   1.000
    O522    O    0.01767   0.11887   0.62509   1.000
    O523    O    0.02099   0.15740   0.65571   1.000
    O524    O    0.51768   0.11887   0.62509   1.000
    O525    O    0.52100   0.15740   0.65571   1.000
    O526    O    0.51769   0.61887   0.62509   1.000
    O527    O    0.52100   0.65740   0.65571   1.000
    O528    O    0.75210   0.89948   0.67484   1.000
    O529    O    0.75210   0.39948   0.67484   1.000
    O530    O    0.25209   0.89948   0.67484   1.000
    O531    O    0.25209   0.39948   0.67484   1.000
    O532    O    0.00204   0.76315   0.67484   1.000
    O533    O    0.50204   0.26315   0.67484   1.000
    O534    O    0.50204   0.76315   0.67484   1.000
    O535    O    0.00204   0.26315   0.67486   1.000
    O536    O    0.92002   0.73569   0.68509   1.000
    O537    O    0.99987   0.70285   0.68871   1.000
    O538    O    0.42001   0.23569   0.68509   1.000
    O539    O    0.49987   0.20285   0.68871   1.000
    O540    O    0.42001   0.73569   0.68509   1.000
    O541    O    0.49987   0.70285   0.68871   1.000
    O542    O    0.67006   0.92179   0.68506   1.000
    O543    O    0.74991   0.95286   0.68867   1.000
    O544    O    0.67006   0.42179   0.68506   1.000
    O545    O    0.74990   0.45286   0.68867   1.000
    O546    O    0.17005   0.92179   0.68506   1.000
    O547    O    0.24989   0.95286   0.68867   1.000
    O548    O    0.17005   0.42179   0.68506   1.000
    O549    O    0.24989   0.45286   0.68867   1.000
    O550    O    0.92002   0.23569   0.68511   1.000
    O551    O    0.99987   0.20285   0.68873   1.000
    O552    O    0.83597   0.97964   0.69726   1.000
    O553    O    0.74923   0.99153   0.73432   1.000
    O554    O    0.83596   0.47964   0.69726   1.000
    O555    O    0.74923   0.49153   0.73432   1.000
    O556    O    0.33595   0.97964   0.69726   1.000
    O557    O    0.24922   0.99153   0.73432   1.000
    O558    O    0.33595   0.47964   0.69726   1.000
    O559    O    0.24922   0.49153   0.73432   1.000
    O560    O    0.08593   0.67180   0.69737   1.000
    O561    O    0.99920   0.64142   0.73445   1.000
    O562    O    0.58594   0.17180   0.69737   1.000
    O563    O    0.49920   0.14142   0.73445   1.000
    O564    O    0.58595   0.67180   0.69737   1.000
    O565    O    0.49920   0.64142   0.73445   1.000
    O566    O    0.08593   0.17180   0.69737   1.000
    O567    O    0.99920   0.14142   0.73445   1.000
    O568    O    0.89688   0.96208   0.72997   1.000
    O569    O    0.39686   0.46208   0.72997   1.000
    O570    O    0.39686   0.96208   0.72997   1.000
    O571    O    0.89687   0.46208   0.72997   1.000
    O572    O    0.64684   0.17311   0.73008   1.000
    O573    O    0.14683   0.67311   0.73008   1.000
    O574    O    0.14682   0.17311   0.73008   1.000
    O575    O    0.64684   0.67311   0.73008   1.000
    O576    O    0.21979   0.02626   0.76818   1.000
    O577    O    0.21980   0.52626   0.76818   1.000
    O578    O    0.71981   0.02626   0.76818   1.000
    O579    O    0.71981   0.52626   0.76818   1.000
    O580    O    0.96972   0.58980   0.76838   1.000
    O581    O    0.96971   0.08980   0.76838   1.000
    O582    O    0.46970   0.58980   0.76838   1.000
    O583    O    0.46970   0.08980   0.76838   1.000
    O584    O    0.67706   0.49076   0.77751   1.000
    O585    O    0.74215   0.48447   0.81631   1.000
    O586    O    0.67706   0.99076   0.77771   1.000
    O587    O    0.74215   0.98447   0.81631   1.000
    O588    O    0.17705   0.49076   0.77751   1.000
    O589    O    0.24213   0.48447   0.81631   1.000
    O590    O    0.17705   0.99076   0.77771   1.000
    O591    O    0.24213   0.98447   0.81631   1.000
    O592    O    0.92705   0.62058   0.77784   1.000
    O593    O    0.99210   0.60755   0.81650   1.000
    O594    O    0.92705   0.12058   0.77786   1.000
    O595    O    0.99209   0.10755   0.81650   1.000
    O596    O    0.42704   0.62058   0.77784   1.000
    O597    O    0.49210   0.60755   0.81650   1.000
    O598    O    0.42703   0.12058   0.77784   1.000
    O599    O    0.49209   0.10755   0.81650   1.000
    O600    O    0.30540   0.45154   0.86348   1.000
    O601    O    0.24087   0.47806   0.89068   1.000
    O602    O    0.30540   0.95154   0.86348   1.000
    O603    O    0.24088   0.97806   0.89068   1.000
    O604    O    0.80541   0.45154   0.86348   1.000
    O605    O    0.74089   0.47806   0.89068   1.000
    O606    O    0.80542   0.95154   0.86348   1.000
    O607    O    0.74089   0.97806   0.89068   1.000
    O608    O    0.05526   0.61700   0.86369   1.000
    O609    O    0.99086   0.57680   0.89086   1.000
    O610    O    0.55527   0.11700   0.86369   1.000
    O611    O    0.49086   0.07680   0.89086   1.000
    O612    O    0.55527   0.61700   0.86369   1.000
    O613    O    0.49086   0.57680   0.89086   1.000
    O614    O    0.05525   0.11700   0.86369   1.000
    O615    O    0.99086   0.07680   0.89086   1.000
    O616    O    0.42140   0.00239   0.96144   1.000
    O617    O    0.42140   0.50239   0.96144   1.000
    O618    O    0.92141   0.00239   0.96144   1.000
    O619    O    0.92141   0.50239   0.96144   1.000
    O620    O    0.18639   0.17726   0.43969   1.000
    O621    O    0.18639   0.67726   0.43969   1.000
    O622    O    0.68640   0.17726   0.43969   1.000
    O623    O    0.68640   0.67726   0.43969   1.000
    O624    O    0.18438   0.26185   0.56232   1.000
    O625    O    0.20520   0.22179   0.45859   1.000
    O626    O    0.18438   0.76185   0.56232   1.000
    O627    O    0.20520   0.72179   0.45859   1.000
    O628    O    0.68439   0.26185   0.56232   1.000
    O629    O    0.70521   0.22179   0.45859   1.000
    O630    O    0.68439   0.76185   0.56232   1.000
    O631    O    0.70521   0.72179   0.45859   1.000
    O632    O    0.13086   0.28966   0.63535   1.000
    O633    O    0.00586   0.34870   0.63537   1.000
    O634    O    0.13086   0.78966   0.63535   1.000
    O635    O    0.00587   0.84869   0.63537   1.000
    O636    O    0.63087   0.28966   0.63535   1.000
    O637    O    0.50586   0.34870   0.63537   1.000
    O638    O    0.63088   0.78966   0.63535   1.000
    O639    O    0.50587   0.84869   0.63537   1.000
    O640    O    0.18643   0.23250   0.65187   1.000
    O641    O    0.18643   0.73250   0.65187   1.000
    O642    O    0.68644   0.23250   0.65187   1.000
    O643    O    0.68644   0.73250   0.65187   1.000
    O644    O    0.06574   0.54307   0.43770   1.000
    O645    O    0.11780   0.52107   0.38958   1.000
    O646    O    0.04492   0.45120   0.54146   1.000
    O647    O    0.06574   0.04307   0.43770   1.000
    O648    O    0.11780   0.02107   0.38958   1.000
    O649    O    0.04492   0.95120   0.54146   1.000
    O650    O    0.56575   0.54307   0.43770   1.000
    O651    O    0.61781   0.52107   0.38958   1.000
    O652    O    0.54492   0.45120   0.54146   1.000
    O653    O    0.56575   0.04307   0.43770   1.000
    O654    O    0.61782   0.02107   0.38958   1.000
    O655    O    0.54492   0.95120   0.54146   1.000
    O656    O    0.06361   0.39721   0.56041   1.000
    O657    O    0.06361   0.89720   0.56041   1.000
    O658    O    0.56361   0.39721   0.56041   1.000
    O659    O    0.56361   0.89720   0.56041   1.000
    O660    O    0.13911   0.05737   0.21582   1.000
    O661    O    0.13911   0.55737   0.21582   1.000
    O662    O    0.63913   0.05737   0.21582   1.000
    O663    O    0.63913   0.55737   0.21582   1.000
    O664    O    0.11913   0.10728   0.36464   1.000
    O665    O    0.17119   0.08528   0.31652   1.000
    O666    O    0.24413   0.16631   0.36466   1.000
    O667    O    0.11913   0.60728   0.36464   1.000
    O668    O    0.17120   0.58528   0.31652   1.000
    O669    O    0.24413   0.66631   0.36466   1.000
    O670    O    0.61914   0.10728   0.36464   1.000
    O671    O    0.67121   0.08528   0.31652   1.000
    O672    O    0.74414   0.16631   0.36466   1.000
    O673    O    0.61915   0.60728   0.36464   1.000
    O674    O    0.67121   0.58528   0.31652   1.000
    O675    O    0.74414   0.66631   0.36466   1.000
    O676    O    0.45117   0.08496   0.35441   1.000
    O677    O    0.45118   0.58496   0.35441   1.000
    O678    O    0.95117   0.08496   0.35441   1.000
    O679    O    0.95118   0.58496   0.35441   1.000
    O680    O    0.06358   0.05832   0.34817   1.000
    O681    O    0.16407   0.02035   0.30275   1.000
    O682    O    0.06359   0.55832   0.34817   1.000
    O683    O    0.16408   0.52035   0.30275   1.000
    O684    O    0.56360   0.05832   0.34817   1.000
    O685    O    0.66409   0.02035   0.30275   1.000
    O686    O    0.56360   0.55832   0.34817   1.000
    O687    O    0.66409   0.52035   0.30275   1.000
    O688    O    0.38928   0.40953   0.06570   1.000
    O689    O    0.38928   0.90953   0.06570   1.000
    O690    O    0.88929   0.40953   0.06570   1.000
    O691    O    0.88930   0.90953   0.06570   1.000
    O692    O    0.95369   0.44974   0.03854   1.000
    O693    O    0.95369   0.94973   0.03854   1.000
    O694    O    0.45369   0.44974   0.03854   1.000
    O695    O    0.45369   0.94973   0.03854   1.000
    O696    O    0.31364   0.32274   0.56031   1.000
    O697    O    0.31364   0.82274   0.56031   1.000
    O698    O    0.81365   0.32274   0.56031   1.000
    O699    O    0.81365   0.82274   0.56031   1.000
    O700    O    0.29483   0.27821   0.54141   1.000
    O701    O    0.31565   0.23814   0.43768   1.000
    O702    O    0.29483   0.77821   0.54141   1.000
    O703    O    0.31565   0.73814   0.43768   1.000
    O704    O    0.79484   0.27821   0.54141   1.000
    O705    O    0.81566   0.23814   0.43768   1.000
    O706    O    0.79484   0.77821   0.54141   1.000
    O707    O    0.81566   0.73814   0.43768   1.000
    O708    O    0.49417   0.15130   0.36462   1.000
    O709    O    0.36916   0.21033   0.36464   1.000
    O710    O    0.49418   0.65130   0.36462   1.000
    O711    O    0.36917   0.71033   0.36464   1.000
    O712    O    0.99417   0.15130   0.36462   1.000
    O713    O    0.86918   0.21033   0.36464   1.000
    O714    O    0.99418   0.65130   0.36462   1.000
    O715    O    0.86918   0.71033   0.36464   1.000
    O716    O    0.31360   0.26750   0.34812   1.000
    O717    O    0.31360   0.76750   0.34812   1.000
    O718    O    0.81361   0.26750   0.34812   1.000
    O719    O    0.81361   0.76750   0.34812   1.000
    O720    O    0.45512   0.04879   0.45854   1.000
    O721    O    0.43429   0.95692   0.56230   1.000
    O722    O    0.45512   0.54879   0.45854   1.000
    O723    O    0.43429   0.45692   0.56230   1.000
    O724    O    0.95512   0.04879   0.45854   1.000
    O725    O    0.93430   0.95692   0.56230   1.000
    O726    O    0.95512   0.54879   0.45854   1.000
    O727    O    0.93430   0.45692   0.56230   1.000
    O728    O    0.43643   0.10279   0.43959   1.000
    O729    O    0.43643   0.60279   0.43959   1.000
    O730    O    0.93643   0.10279   0.43959   1.000
    O731    O    0.93643   0.60279   0.43959   1.000
    O732    O    0.29639   0.46914   0.96137   1.000
    O733    O    0.29639   0.96914   0.96137   1.000
    O734    O    0.79640   0.46914   0.96137   1.000
    O735    O    0.79640   0.96914   0.96137   1.000
    O736    O    0.36091   0.44263   0.93416   1.000
    O737    O    0.36092   0.94262   0.93416   1.000
    O738    O    0.86093   0.44263   0.93416   1.000
    O739    O    0.86093   0.94262   0.93416   1.000
    O740    O    0.25590   0.33368   0.63534   1.000
    O741    O    0.38089   0.39272   0.63536   1.000
    O742    O    0.25590   0.83368   0.63534   1.000
    O743    O    0.38090   0.89271   0.63536   1.000
    O744    O    0.75591   0.33368   0.63534   1.000
    O745    O    0.88091   0.39272   0.63536   1.000
    O746    O    0.75591   0.83368   0.63534   1.000
    O747    O    0.88091   0.89271   0.63536   1.000
    O748    O    0.43644   0.44167   0.65183   1.000
    O749    O    0.43644   0.94167   0.65183   1.000
    O750    O    0.93645   0.44167   0.65183   1.000
    O751    O    0.93646   0.94167   0.65183   1.000
loop_
    _geom_bond_atom_site_label_1
    _geom_bond_atom_site_label_2
    _geom_bond_distance
    _geom_bond_site_symmetry_2
    _ccdc_geom_bond_type
    C260   O312      0.64818      .   S
    C154   O312      0.64818  1_655   S
    C261   O313      0.64818      .   S
    C155   O313      0.64818  1_655   S
    C262   O314      0.64824      .   S
    C152   O314      0.64824      .   S
    C263   O315      0.64824      .   S
    C153   O315      0.64824      .   S
    C239   O316      0.64814      .   S
    C147   O316      0.64814      .   S
    C239   O317      1.16057      .   S
    C2     O317      1.16057  1_556   S
    C238   O318      0.64814      .   S
    C146   O318      0.64814      .   S
    C238   O319      1.16060  1_545   S
    C3     O319      1.16060  1_556   S
    C237   O320      0.64814      .   S
    C145   O320      0.64814      .   S
    C237   O321      1.16057      .   S
    C0     O321      1.16057  1_556   S
    C236   O322      0.64814      .   S
    C144   O322      0.64814      .   S
    C236   O323      1.16060  1_545   S
    C1     O323      1.16060  1_556   S
    C256   O324      0.63663      .   S
    C152   O324      0.63663      .   S
    C257   O325      0.63664      .   S
    C153   O325      0.63664      .   S
    C258   O326      0.63663      .   S
    C154   O326      0.63663      .   S
    C259   O327      0.63663      .   S
    C155   O327      0.63663      .   S
    C243   O328      0.63667      .   S
    C147   O328      0.63667      .   S
    C240   O329      0.63667      .   S
    C144   O329      0.63667      .   S
    C241   O330      0.63667      .   S
    C145   O330      0.63667      .   S
    C242   O331      0.63667      .   S
    C146   O331      0.63667      .   S
    C155   O332      0.75284  1_655   S
    C157   O332      0.75284      .   S
    C154   O333      0.75284  1_655   S
    C156   O333      0.75284      .   S
    C153   O334      0.75292      .   S
    C159   O334      0.75292      .   S
    C152   O335      0.75292      .   S
    C158   O335      0.75292      .   S
    C147   O336      0.75285      .   S
    C142   O336      0.75285      .   S
    C146   O337      0.75410      .   S
    C143   O337      0.75410      .   S
    C145   O338      0.75285      .   S
    C140   O338      0.75285      .   S
    C144   O339      0.75410      .   S
    C141   O339      0.75410      .   S
    C75    O340      0.55047      .   S
    C159   O340      0.55047      .   S
    C74    O341      0.55047      .   S
    C158   O341      0.55047      .   S
    C73    O342      0.55047      .   S
    C157   O342      0.55047      .   S
    C72    O343      0.55047      .   S
    C156   O343      0.55047      .   S
    C56    O344      0.55346      .   S
    C141   O344      0.55346      .   S
    C57    O345      0.55045      .   S
    C140   O345      0.55045      .   S
    C58    O346      0.55346      .   S
    C143   O346      0.55346      .   S
    C59    O347      0.55045      .   S
    C142   O347      0.55045      .   S
    C159   O348      0.55096      .   S
    C79    O348      0.55096      .   S
    C159   O349      0.77722      .   S
    C161   O349      0.77722      .   S
    C158   O350      0.55096      .   S
    C78    O350      0.55096      .   S
    C158   O351      0.77722      .   S
    C160   O351      0.77722      .   S
    C157   O352      0.55097      .   S
    C77    O352      0.55097      .   S
    C157   O353      0.77715      .   S
    C163   O353      0.77715  1_655   S
    C156   O354      0.55096      .   S
    C76    O354      0.55096      .   S
    C156   O355      0.77715      .   S
    C162   O355      0.77715  1_655   S
    C140   O356      0.55103      .   S
    C60    O356      0.55103      .   S
    C140   O357      0.77720      .   S
    C137   O357      0.77720      .   S
    C143   O358      0.54064  1_545   S
    C63    O358      0.54064      .   S
    C143   O359      0.78224      .   S
    C138   O359      0.78224      .   S
    C141   O360      0.54064  1_545   S
    C61    O360      0.54064      .   S
    C141   O361      0.78224      .   S
    C136   O361      0.78224      .   S
    C142   O362      0.55103      .   S
    C62    O362      0.55103      .   S
    C142   O363      0.77720      .   S
    C139   O363      0.77720      .   S
    C67    O364      0.49528      .   S
    C283   O364      0.49528      .   S
    C66    O365      0.49528      .   S
    C282   O365      0.49528      .   S
    C65    O366      0.49528      .   S
    C281   O366      0.49528      .   S
    C64    O367      0.49528      .   S
    C280   O367      0.49528      .   S
    C28    O368      0.49566      .   S
    C252   O368      0.49566      .   S
    C30    O369      0.49566      .   S
    C254   O369      0.49566      .   S
    C29    O370      0.49531      .   S
    C253   O370      0.49531      .   S
    C31    O371      0.49531      .   S
    C255   O371      0.49531      .   S
    C283   O372      0.72149      .   S
    C163   O372      0.72149      .   S
    C282   O373      0.72149      .   S
    C162   O373      0.72149      .   S
    C281   O374      0.72149      .   S
    C161   O374      0.72149      .   S
    C280   O375      0.72149      .   S
    C160   O375      0.72149      .   S
    C255   O376      0.26839      .   S
    C15    O376      0.26839      .   S
    C253   O377      0.26839      .   S
    C13    O377      0.26839      .   S
    C254   O378      0.26840      .   S
    C14    O378      0.26840      .   S
    C252   O379      0.26840      .   S
    C12    O379      0.26840      .   S
    C160   O380      0.78184      .   S
    C174   O380      0.78184      .   S
    C160   O381      0.77155      .   S
    C164   O381      0.77155      .   S
    C161   O382      0.78184      .   S
    C175   O382      0.78184      .   S
    C161   O383      0.77155      .   S
    C165   O383      0.77155      .   S
    C162   O384      0.78177  1_655   S
    C172   O384      0.78177      .   S
    C162   O385      0.77155      .   S
    C166   O385      0.77155      .   S
    C163   O386      0.78177  1_655   S
    C173   O386      0.78177      .   S
    C163   O387      0.77155      .   S
    C167   O387      0.77155      .   S
    C136   O388      0.78185      .   S
    C148   O388      0.78185      .   S
    C136   O389      0.77149  1_545   S
    C133   O389      0.77149      .   S
    C137   O390      0.78185      .   S
    C149   O390      0.78185      .   S
    C137   O391      0.77147      .   S
    C132   O391      0.77147      .   S
    C138   O392      0.78185      .   S
    C150   O392      0.78185      .   S
    C138   O393      0.77149  1_545   S
    C135   O393      0.77149      .   S
    C139   O394      0.78185      .   S
    C151   O394      0.78185      .   S
    C139   O395      0.77147      .   S
    C134   O395      0.77147      .   S
    C276   O396      0.63183      .   S
    C172   O396      0.63183      .   S
    C276   O397      1.19767      .   S
    C20    O397      1.19767      .   S
    C277   O398      0.63183      .   S
    C173   O398      0.63183      .   S
    C277   O399      1.19767      .   S
    C21    O399      1.19767      .   S
    C278   O400      0.63183      .   S
    C174   O400      0.63183      .   S
    C278   O401      1.19767      .   S
    C22    O401      1.19767      .   S
    C279   O402      0.63183      .   S
    C175   O402      0.63183      .   S
    C279   O403      1.19767      .   S
    C23    O403      1.19767      .   S
    C251   O404      0.63177      .   S
    C151   O404      0.63177      .   S
    C250   O405      0.63177      .   S
    C150   O405      0.63177      .   S
    C249   O406      0.63177      .   S
    C149   O406      0.63177      .   S
    C248   O407      0.63177      .   S
    C148   O407      0.63177      .   S
    C172   O408      0.63584  1_455   S
    C274   O408      0.63584      .   S
    C175   O409      0.63594      .   S
    C273   O409      0.63594      .   S
    C174   O410      0.63594      .   S
    C272   O410      0.63594      .   S
    C173   O411      0.63584  1_455   S
    C275   O411      0.63584      .   S
    C151   O412      0.63594      .   S
    C247   O412      0.63594      .   S
    C150   O413      0.63594      .   S
    C246   O413      0.63594      .   S
    C149   O414      0.63594      .   S
    C245   O414      0.63594      .   S
    C148   O415      0.63594      .   S
    C244   O415      0.63594      .   S
    C80    O416      0.54910      .   S
    C164   O416      0.54910      .   S
    C81    O417      0.54910      .   S
    C165   O417      0.54910      .   S
    C82    O418      0.54910      .   S
    C166   O418      0.54910      .   S
    C83    O419      0.54910      .   S
    C167   O419      0.54910      .   S
    C50    O420      0.54908      .   S
    C134   O420      0.54908      .   S
    C48    O421      0.54908      .   S
    C132   O421      0.54908      .   S
    C49    O422      0.54909      .   S
    C133   O422      0.54909      .   S
    C51    O423      0.54909      .   S
    C135   O423      0.54909      .   S
    C167   O424      0.54975  1_655   S
    C85    O424      0.54975      .   S
    C167   O425      0.75818      .   S
    C171   O425      0.75818      .   S
    C166   O426      0.54975  1_655   S
    C84    O426      0.54975      .   S
    C166   O427      0.75818      .   S
    C170   O427      0.75818      .   S
    C165   O428      0.54991      .   S
    C87    O428      0.54991      .   S
    C165   O429      0.75818      .   S
    C169   O429      0.75818      .   S
    C164   O430      0.54991      .   S
    C86    O430      0.54991      .   S
    C164   O431      0.75818      .   S
    C168   O431      0.75818      .   S
    C132   O432      0.54994      .   S
    C52    O432      0.54994      .   S
    C132   O433      0.75813      .   S
    C128   O433      0.75813      .   S
    C135   O434      0.54994      .   S
    C55    O434      0.54994      .   S
    C135   O435      0.75813      .   S
    C131   O435      0.75813      .   S
    C134   O436      0.54994      .   S
    C54    O436      0.54994      .   S
    C134   O437      0.75813      .   S
    C130   O437      0.75813      .   S
    C133   O438      0.54994      .   S
    C53    O438      0.54994      .   S
    C133   O439      0.75813      .   S
    C129   O439      0.75813      .   S
    C5     O440      1.18743      .   S
    C209   O440      1.18743      .   S
    C6     O441      1.18743      .   S
    C210   O441      1.18743      .   S
    C7     O442      1.18743      .   S
    C211   O442      1.18743      .   S
    C4     O443      1.18743      .   S
    C208   O443      1.18743      .   S
    C21    O444      1.18784      .   S
    C289   O444      1.18784      .   S
    C23    O445      1.18784      .   S
    C291   O445      1.18784      .   S
    C22    O446      1.18784      .   S
    C290   O446      1.18784      .   S
    C20    O447      1.18784      .   S
    C288   O447      1.18784      .   S
    C170   O448      0.63450      .   S
    C270   O448      0.63450      .   S
    C170   O449      0.63829      .   S
    C266   O449      0.63829      .   S
    C169   O450      0.63450      .   S
    C269   O450      0.63450      .   S
    C169   O451      0.63829      .   S
    C265   O451      0.63829      .   S
    C168   O452      0.63450      .   S
    C268   O452      0.63450      .   S
    C168   O453      0.63829      .   S
    C264   O453      0.63829      .   S
    C171   O454      0.63450      .   S
    C271   O454      0.63450      .   S
    C171   O455      0.63829      .   S
    C267   O455      0.63829      .   S
    C128   O456      0.63455      .   S
    C228   O456      0.63455      .   S
    C128   O457      0.63833      .   S
    C232   O457      0.63833      .   S
    C130   O458      0.63455      .   S
    C230   O458      0.63455      .   S
    C130   O459      0.63833      .   S
    C234   O459      0.63833      .   S
    C129   O460      0.63455      .   S
    C229   O460      0.63455      .   S
    C129   O461      0.63833      .   S
    C233   O461      0.63833      .   S
    C131   O462      0.63455      .   S
    C231   O462      0.63455      .   S
    C131   O463      0.63833      .   S
    C235   O463      0.63833      .   S
    C289   O464      0.63830      .   S
    C177   O464      0.63830      .   S
    C290   O465      0.63830      .   S
    C178   O465      0.63830      .   S
    C288   O466      0.63830      .   S
    C176   O466      0.63830      .   S
    C291   O467      0.63830      .   S
    C179   O467      0.63830      .   S
    C208   O468      0.63829      .   S
    C120   O468      0.63829      .   S
    C209   O469      0.63829      .   S
    C121   O469      0.63829      .   S
    C210   O470      0.63829      .   S
    C122   O470      0.63829      .   S
    C211   O471      0.63829      .   S
    C123   O471      0.63829      .   S
    C267   O472      1.18736      .   S
    C19    O472      1.18736      .   S
    C266   O473      1.18736      .   S
    C18    O473      1.18736      .   S
    C265   O474      1.18736      .   S
    C17    O474      1.18736      .   S
    C264   O475      1.18736      .   S
    C16    O475      1.18736      .   S
    C232   O476      1.18781      .   S
    C8     O476      1.18781      .   S
    C235   O477      1.18781      .   S
    C11    O477      1.18781      .   S
    C234   O478      1.18781      .   S
    C10    O478      1.18781      .   S
    C233   O479      1.18781      .   S
    C9     O479      1.18781      .   S
    C286   O480      0.63452      .   S
    C178   O480      0.63452      .   S
    C285   O481      0.63452      .   S
    C177   O481      0.63452      .   S
    C287   O482      0.63452      .   S
    C179   O482      0.63452      .   S
    C284   O483      0.63452      .   S
    C176   O483      0.63452      .   S
    C212   O484      0.63449      .   S
    C120   O484      0.63449      .   S
    C213   O485      0.63450      .   S
    C121   O485      0.63450      .   S
    C214   O486      0.63450      .   S
    C122   O486      0.63450      .   S
    C215   O487      0.63450      .   S
    C123   O487      0.63450      .   S
    C176   O488      0.75813      .   S
    C180   O488      0.75813      .   S
    C179   O489      0.75813      .   S
    C183   O489      0.75813      .   S
    C178   O490      0.75813      .   S
    C182   O490      0.75813      .   S
    C177   O491      0.75813      .   S
    C181   O491      0.75813      .   S
    C122   O492      0.75813      .   S
    C118   O492      0.75813      .   S
    C120   O493      0.75813      .   S
    C116   O493      0.75813      .   S
    C123   O494      0.75813      .   S
    C119   O494      0.75813      .   S
    C121   O495      0.75813      .   S
    C117   O495      0.75813      .   S
    C94    O496      0.54994      .   S
    C182   O496      0.54994      .   S
    C95    O497      0.54994      .   S
    C183   O497      0.54994      .   S
    C93    O498      0.54994      .   S
    C181   O498      0.54994      .   S
    C92    O499      0.54994      .   S
    C180   O499      0.54994      .   S
    C44    O500      0.54991      .   S
    C118   O500      0.54991      .   S
    C45    O501      0.54991      .   S
    C119   O501      0.54991      .   S
    C46    O502      0.54974      .   S
    C116   O502      0.54974  1_455   S
    C47    O503      0.54974      .   S
    C117   O503      0.54974  1_455   S
    C9     O504      1.19771      .   S
    C221   O504      1.19771      .   S
    C10    O505      1.19772      .   S
    C222   O505      1.19772      .   S
    C11    O506      1.19771      .   S
    C223   O506      1.19771      .   S
    C8     O507      1.19772      .   S
    C220   O507      1.19772      .   S
    C16    O508      1.19716      .   S
    C306   O508      1.19716      .   S
    C17    O509      1.19717      .   S
    C307   O509      1.19717      .   S
    C18    O510      1.19703  1_655   S
    C304   O510      1.19703      .   S
    C19    O511      1.19703  1_655   S
    C305   O511      1.19703      .   S
    C183   O512      0.54908      .   S
    C91    O512      0.54908      .   S
    C183   O513      0.77152      .   S
    C186   O513      0.77152      .   S
    C182   O514      0.54908      .   S
    C90    O514      0.54908      .   S
    C182   O515      0.77154      .   S
    C187   O515      0.77154  1_565   S
    C181   O516      0.54908      .   S
    C89    O516      0.54908      .   S
    C181   O517      0.77152      .   S
    C184   O517      0.77152      .   S
    C180   O518      0.54908      .   S
    C88    O518      0.54908      .   S
    C180   O519      0.77154      .   S
    C185   O519      0.77154  1_565   S
    C117   O520      0.54909      .   S
    C41    O520      0.54909      .   S
    C117   O521      0.77163      .   S
    C113   O521      0.77163      .   S
    C116   O522      0.54909      .   S
    C40    O522      0.54909      .   S
    C116   O523      0.77163      .   S
    C112   O523      0.77163      .   S
    C118   O524      0.54909      .   S
    C42    O524      0.54909      .   S
    C118   O525      0.77163      .   S
    C114   O525      0.77163      .   S
    C119   O526      0.54909      .   S
    C43    O526      0.54909      .   S
    C119   O527      0.77163      .   S
    C115   O527      0.77163      .   S
    C303   O528      0.63594      .   S
    C199   O528      0.63594      .   S
    C302   O529      0.63594      .   S
    C198   O529      0.63594      .   S
    C301   O530      0.63594      .   S
    C197   O530      0.63594      .   S
    C300   O531      0.63594      .   S
    C196   O531      0.63594      .   S
    C217   O532      0.63590      .   S
    C127   O532      0.63590  1_655   S
    C218   O533      0.63599      .   S
    C124   O533      0.63599      .   S
    C219   O534      0.63599      .   S
    C125   O534      0.63599      .   S
    C216   O535      0.63585      .   S
    C126   O535      0.63585  1_655   S
    C127   O536      0.63180      .   S
    C223   O536      0.63180      .   S
    C127   O537      0.78171      .   S
    C113   O537      0.78171  1_455   S
    C124   O538      0.63180      .   S
    C220   O538      0.63180      .   S
    C124   O539      0.78179      .   S
    C114   O539      0.78179      .   S
    C125   O540      0.63180      .   S
    C221   O540      0.63180      .   S
    C125   O541      0.78179      .   S
    C115   O541      0.78179      .   S
    C199   O542      0.63176      .   S
    C307   O542      0.63176      .   S
    C199   O543      0.78185      .   S
    C187   O543      0.78185      .   S
    C198   O544      0.63177      .   S
    C306   O544      0.63177      .   S
    C198   O545      0.78185      .   S
    C186   O545      0.78185      .   S
    C197   O546      0.63177      .   S
    C305   O546      0.63177      .   S
    C197   O547      0.78185      .   S
    C185   O547      0.78185      .   S
    C196   O548      0.63177      .   S
    C304   O548      0.63177      .   S
    C196   O549      0.78185      .   S
    C184   O549      0.78185      .   S
    C126   O550      0.63182      .   S
    C222   O550      0.63182      .   S
    C126   O551      0.78175      .   S
    C112   O551      0.78175  1_455   S
    C187   O552      0.72149      .   S
    C311   O552      0.72149      .   S
    C187   O553      0.77723      .   S
    C190   O553      0.77723      .   S
    C186   O554      0.72149      .   S
    C310   O554      0.72149      .   S
    C186   O555      0.77720      .   S
    C191   O555      0.77720      .   S
    C185   O556      0.72150      .   S
    C309   O556      0.72150      .   S
    C185   O557      0.77723      .   S
    C188   O557      0.77723      .   S
    C184   O558      0.72149      .   S
    C308   O558      0.72149      .   S
    C184   O559      0.77720      .   S
    C189   O559      0.77720      .   S
    C113   O560      0.72148      .   S
    C225   O560      0.72148      .   S
    C113   O561      0.77715  1_455   S
    C111   O561      0.77715      .   S
    C114   O562      0.72148      .   S
    C226   O562      0.72148      .   S
    C114   O563      0.77722      .   S
    C108   O563      0.77722      .   S
    C115   O564      0.72148      .   S
    C227   O564      0.72148      .   S
    C115   O565      0.77722      .   S
    C109   O565      0.77722      .   S
    C112   O566      0.72148      .   S
    C224   O566      0.72148      .   S
    C112   O567      0.77715  1_455   S
    C110   O567      0.77715      .   S
    C311   O568      0.49524      .   S
    C71    O568      0.49524      .   S
    C308   O569      0.49524      .   S
    C68    O569      0.49524      .   S
    C309   O570      0.49524      .   S
    C69    O570      0.49524      .   S
    C310   O571      0.49524      .   S
    C70    O571      0.49524      .   S
    C226   O572      0.49528      .   S
    C26    O572      0.49528      .   S
    C225   O573      0.49528      .   S
    C25    O573      0.49528      .   S
    C224   O574      0.49528      .   S
    C24    O574      0.49528      .   S
    C227   O575      0.49528      .   S
    C27    O575      0.49528      .   S
    C100   O576      0.55101      .   S
    C188   O576      0.55101  1_565   S
    C101   O577      0.55102      .   S
    C189   O577      0.55102      .   S
    C102   O578      0.55101      .   S
    C190   O578      0.55101  1_565   S
    C103   O579      0.55102      .   S
    C191   O579      0.55102      .   S
    C39    O580      0.55100      .   S
    C111   O580      0.55100      .   S
    C38    O581      0.55100      .   S
    C110   O581      0.55100      .   S
    C37    O582      0.55100      .   S
    C109   O582      0.55100      .   S
    C36    O583      0.55100      .   S
    C108   O583      0.55100      .   S
    C191   O584      0.55076      .   S
    C98    O584      0.55076      .   S
    C191   O585      0.75242      .   S
    C194   O585      0.75242      .   S
    C190   O586      0.55043      .   S
    C99    O586      0.55043      .   S
    C190   O587      0.75244      .   S
    C195   O587      0.75244      .   S
    C189   O588      0.55076      .   S
    C96    O588      0.55076      .   S
    C189   O589      0.75242      .   S
    C192   O589      0.75242      .   S
    C188   O590      0.55043      .   S
    C97    O590      0.55043      .   S
    C188   O591      0.75244      .   S
    C193   O591      0.75244      .   S
    C111   O592      0.55044      .   S
    C35    O592      0.55044      .   S
    C111   O593      0.75277      .   S
    C105   O593      0.75277  1_455   S
    C110   O594      0.55047      .   S
    C34    O594      0.55047      .   S
    C110   O595      0.75277      .   S
    C104   O595      0.75277  1_455   S
    C109   O596      0.55044      .   S
    C33    O596      0.55044      .   S
    C109   O597      0.75285      .   S
    C107   O597      0.75285      .   S
    C108   O598      0.55044      .   S
    C32    O598      0.55044      .   S
    C108   O599      0.75285      .   S
    C106   O599      0.75285      .   S
    C192   O600      0.63668      .   S
    C296   O600      0.63668      .   S
    C192   O601      0.64857      .   S
    C292   O601      0.64857      .   S
    C193   O602      0.63668      .   S
    C297   O602      0.63668      .   S
    C193   O603      0.64857      .   S
    C293   O603      0.64857      .   S
    C194   O604      0.63668      .   S
    C298   O604      0.63668      .   S
    C194   O605      0.64857      .   S
    C294   O605      0.64857      .   S
    C195   O606      0.63668      .   S
    C299   O606      0.63668      .   S
    C195   O607      0.64857      .   S
    C295   O607      0.64857      .   S
    C105   O608      0.63664      .   S
    C201   O608      0.63664      .   S
    C105   O609      0.64822  1_455   S
    C207   O609      0.64822      .   S
    C106   O610      0.63664      .   S
    C202   O610      0.63664      .   S
    C106   O611      0.64828      .   S
    C204   O611      0.64828      .   S
    C107   O612      0.63664      .   S
    C203   O612      0.63664      .   S
    C107   O613      0.64828      .   S
    C205   O613      0.64828      .   S
    C104   O614      0.63663      .   S
    C200   O614      0.63663      .   S
    C104   O615      0.64822  1_455   S
    C206   O615      0.64822      .   S
    C204   O616      1.16165      .   S
    C1     O616      1.16165  1_565   S
    C205   O617      1.16165      .   S
    C0     O617      1.16165      .   S
    C206   O618      1.16165      .   S
    C3     O618      1.16165  1_565   S
    C207   O619      1.16165      .   S
    C2     O619      1.16165      .   S
    C208   O620      1.26613      .   S
    C20    O620      1.26613      .   S
    C209   O621      1.26613      .   S
    C21    O621      1.26613      .   S
    C210   O622      1.26613      .   S
    C22    O622      1.26613      .   S
    C211   O623      1.26612      .   S
    C23    O623      1.26612      .   S
    C212   O624      1.21301      .   S
    C8     O624      1.21301      .   S
    C212   O625      1.33291      .   S
    C20    O625      1.33291      .   S
    C213   O626      1.21301      .   S
    C9     O626      1.21301      .   S
    C213   O627      1.33291      .   S
    C21    O627      1.33291      .   S
    C214   O628      1.21301      .   S
    C10    O628      1.21301      .   S
    C214   O629      1.33291      .   S
    C22    O629      1.33291      .   S
    C215   O630      1.21301      .   S
    C11    O630      1.21301      .   S
    C215   O631      1.33291      .   S
    C23    O631      1.33291      .   S
    C216   O632      1.26721      .   S
    C8     O632      1.26721      .   S
    C216   O633      1.25305      .   S
    C18    O633      1.25305  1_655   S
    C217   O634      1.26720      .   S
    C9     O634      1.26720      .   S
    C217   O635      1.25306      .   S
    C19    O635      1.25306  1_655   S
    C218   O636      1.26720      .   S
    C10    O636      1.26720      .   S
    C218   O637      1.25311      .   S
    C16    O637      1.25311      .   S
    C219   O638      1.26720      .   S
    C11    O638      1.26720      .   S
    C219   O639      1.25311      .   S
    C17    O639      1.25311      .   S
    C224   O640      1.29776      .   S
    C8     O640      1.29776      .   S
    C225   O641      1.29776      .   S
    C9     O641      1.29776      .   S
    C226   O642      1.29776      .   S
    C10    O642      1.29776      .   S
    C227   O643      1.29776      .   S
    C11    O643      1.29776      .   S
    C228   O644      1.21259      .   S
    C5     O644      1.21259      .   S
    C228   O645      1.41048      .   S
    C13    O645      1.41048      .   S
    C228   O646      1.33405      .   S
    C18    O646      1.33405  1_655   S
    C229   O647      1.21263  1_565   S
    C4     O647      1.21263      .   S
    C229   O648      1.41049  1_565   S
    C12    O648      1.41049      .   S
    C229   O649      1.33405      .   S
    C19    O649      1.33405  1_655   S
    C230   O650      1.21259      .   S
    C7     O650      1.21259      .   S
    C230   O651      1.41048      .   S
    C15    O651      1.41048      .   S
    C230   O652      1.33414      .   S
    C16    O652      1.33414      .   S
    C231   O653      1.21263  1_565   S
    C6     O653      1.21263      .   S
    C231   O654      1.41049  1_565   S
    C14    O654      1.41049      .   S
    C231   O655      1.33415      .   S
    C17    O655      1.33415      .   S
    C232   O656      1.26476      .   S
    C18    O656      1.26476  1_655   S
    C233   O657      1.26476      .   S
    C19    O657      1.26476  1_655   S
    C234   O658      1.26489      .   S
    C16    O658      1.26489      .   S
    C235   O659      1.26489      .   S
    C17    O659      1.26489      .   S
    C240   O660      1.34323      .   S
    C12    O660      1.34323      .   S
    C241   O661      1.34322      .   S
    C13    O661      1.34322      .   S
    C242   O662      1.34323      .   S
    C14    O662      1.34323      .   S
    C243   O663      1.34322      .   S
    C15    O663      1.34322      .   S
    C244   O664      1.26663      .   S
    C4     O664      1.26663      .   S
    C244   O665      1.09072      .   S
    C12    O665      1.09072      .   S
    C244   O666      1.25288      .   S
    C20    O666      1.25288      .   S
    C245   O667      1.26663      .   S
    C5     O667      1.26663      .   S
    C245   O668      1.09073      .   S
    C13    O668      1.09073      .   S
    C245   O669      1.25288      .   S
    C21    O669      1.25288      .   S
    C246   O670      1.26663      .   S
    C6     O670      1.26663      .   S
    C246   O671      1.09072      .   S
    C14    O671      1.09072      .   S
    C246   O672      1.25288      .   S
    C22    O672      1.25288      .   S
    C247   O673      1.26663      .   S
    C7     O673      1.26663      .   S
    C247   O674      1.09073      .   S
    C15    O674      1.09073      .   S
    C247   O675      1.25288      .   S
    C23    O675      1.25288      .   S
    C248   O676      1.19717      .   S
    C6     O676      1.19717      .   S
    C249   O677      1.19717      .   S
    C7     O677      1.19717      .   S
    C250   O678      1.19703      .   S
    C4     O678      1.19703  1_455   S
    C251   O679      1.19703      .   S
    C5     O679      1.19703  1_455   S
    C252   O680      1.29714      .   S
    C4     O680      1.29714      .   S
    C252   O681      0.72149      .   S
    C136   O681      0.72149      .   S
    C253   O682      1.29714      .   S
    C5     O682      1.29714      .   S
    C253   O683      0.72149      .   S
    C137   O683      0.72149      .   S
    C254   O684      1.29714      .   S
    C6     O684      1.29714      .   S
    C254   O685      0.72149      .   S
    C138   O685      0.72149      .   S
    C255   O686      1.29714      .   S
    C7     O686      1.29714      .   S
    C255   O687      0.72149      .   S
    C139   O687      0.72149      .   S
    C256   O688      1.20515      .   S
    C0     O688      1.20515  1_556   S
    C257   O689      1.20516      .   S
    C1     O689      1.20516  1_556   S
    C258   O690      1.20515      .   S
    C2     O690      1.20515  1_556   S
    C259   O691      1.20515      .   S
    C3     O691      1.20515  1_556   S
    C260   O692      1.20998  1_455   S
    C2     O692      1.20998  1_556   S
    C261   O693      1.20998  1_455   S
    C3     O693      1.20998  1_556   S
    C262   O694      1.21013      .   S
    C0     O694      1.21013  1_556   S
    C263   O695      1.21013      .   S
    C1     O695      1.21013  1_556   S
    C264   O696      1.26611      .   S
    C8     O696      1.26611      .   S
    C265   O697      1.26611      .   S
    C9     O697      1.26611      .   S
    C266   O698      1.26611      .   S
    C10    O698      1.26611      .   S
    C267   O699      1.26611      .   S
    C11    O699      1.26611      .   S
    C268   O700      1.33284      .   S
    C8     O700      1.33284      .   S
    C268   O701      1.21308      .   S
    C20    O701      1.21308      .   S
    C269   O702      1.33284      .   S
    C9     O702      1.33284      .   S
    C269   O703      1.21308      .   S
    C21    O703      1.21308      .   S
    C270   O704      1.33284      .   S
    C10    O704      1.33284      .   S
    C270   O705      1.21308      .   S
    C22    O705      1.21308      .   S
    C271   O706      1.33284      .   S
    C11    O706      1.33284      .   S
    C271   O707      1.21308      .   S
    C23    O707      1.21308      .   S
    C272   O708      1.25311      .   S
    C6     O708      1.25311      .   S
    C272   O709      1.26720      .   S
    C20    O709      1.26720      .   S
    C273   O710      1.25311      .   S
    C7     O710      1.25311      .   S
    C273   O711      1.26721      .   S
    C21    O711      1.26721      .   S
    C274   O712      1.25306      .   S
    C4     O712      1.25306  1_455   S
    C274   O713      1.26720      .   S
    C22    O713      1.26720      .   S
    C275   O714      1.25306      .   S
    C5     O714      1.25306  1_455   S
    C275   O715      1.26721      .   S
    C23    O715      1.26721      .   S
    C280   O716      1.29776      .   S
    C20    O716      1.29776      .   S
    C281   O717      1.29776      .   S
    C21    O717      1.29776      .   S
    C282   O718      1.29776      .   S
    C22    O718      1.29776      .   S
    C283   O719      1.29776      .   S
    C23    O719      1.29776      .   S
    C284   O720      1.33419      .   S
    C6     O720      1.33419      .   S
    C284   O721      1.21260  1_545   S
    C17    O721      1.21260      .   S
    C285   O722      1.33419      .   S
    C7     O722      1.33419      .   S
    C285   O723      1.21257      .   S
    C16    O723      1.21257      .   S
    C286   O724      1.33409      .   S
    C4     O724      1.33409  1_455   S
    C286   O725      1.21260  1_545   S
    C19    O725      1.21260      .   S
    C287   O726      1.33409      .   S
    C5     O726      1.33409  1_455   S
    C287   O727      1.21256      .   S
    C18    O727      1.21256      .   S
    C288   O728      1.26494      .   S
    C6     O728      1.26494      .   S
    C289   O729      1.26494      .   S
    C7     O729      1.26494      .   S
    C290   O730      1.26480      .   S
    C4     O730      1.26480  1_455   S
    C291   O731      1.26480      .   S
    C5     O731      1.26480  1_455   S
    C292   O732      1.21142      .   S
    C0     O732      1.21142      .   S
    C293   O733      1.21142      .   S
    C1     O733      1.21142      .   S
    C294   O734      1.21142      .   S
    C2     O734      1.21142      .   S
    C295   O735      1.21141      .   S
    C3     O735      1.21141      .   S
    C296   O736      1.20372      .   S
    C0     O736      1.20372      .   S
    C297   O737      1.20372      .   S
    C1     O737      1.20372      .   S
    C298   O738      1.20372      .   S
    C2     O738      1.20372      .   S
    C299   O739      1.20372      .   S
    C3     O739      1.20372      .   S
    C300   O740      1.25294      .   S
    C8     O740      1.25294      .   S
    C300   O741      1.26665      .   S
    C16    O741      1.26665      .   S
    C301   O742      1.25294      .   S
    C9     O742      1.25294      .   S
    C301   O743      1.26665      .   S
    C17    O743      1.26665      .   S
    C302   O744      1.25294      .   S
    C10    O744      1.25294      .   S
    C302   O745      1.26665      .   S
    C18    O745      1.26665      .   S
    C303   O746      1.25294      .   S
    C11    O746      1.25294      .   S
    C303   O747      1.26665      .   S
    C19    O747      1.26665      .   S
    C308   O748      1.29720      .   S
    C16    O748      1.29720      .   S
    C309   O749      1.29720      .   S
    C17    O749      1.29720      .   S
    C310   O750      1.29720      .   S
    C18    O750      1.29720      .   S
    C311   O751      1.29720      .   S
    C19    O751      1.29720      .   S
