# CIF file generated by openbabel 2.4.90, see http://openbabel.sf.net
data_I
_chemical_name_common ''
_cell_length_a 6.9295
_cell_length_b 13.793
_cell_length_c 21.991
_cell_angle_alpha 89.959
_cell_angle_beta 89.755
_cell_angle_gamma 89.82
_space_group_name_H-M_alt 'P 1'
_space_group_name_Hall 'P 1'
loop_
    _symmetry_equiv_pos_as_xyz
    x,y,z
loop_
    _atom_site_label
    _atom_site_type_symbol
    _atom_site_fract_x
    _atom_site_fract_y
    _atom_site_fract_z
    _atom_site_occupancy
    Zn0     Zn   0.78408   0.62921   0.96745   1.000
    Zn1     Zn   0.75047   0.11729   0.36771   1.000
    Zn2     Zn   0.21575   0.36732   0.46705   1.000
    Zn3     Zn   0.25122   0.38168   0.86688   1.000
    Zn4     Zn   0.71591   0.12910   0.96768   1.000
    Zn5     Zn   0.74330   0.61695   0.36778   1.000
    Zn6     Zn   0.28386   0.86806   0.46716   1.000
    Zn7     Zn   0.24778   0.87949   0.86684   1.000
