# CIF file generated by openbabel 2.4.90, see http://openbabel.sf.net
data_I
_chemical_name_common ''
_cell_length_a 6.9295
_cell_length_b 13.793
_cell_length_c 21.991
_cell_angle_alpha 89.959
_cell_angle_beta 89.755
_cell_angle_gamma 89.82
_space_group_name_H-M_alt 'P 1'
_space_group_name_Hall 'P 1'
loop_
    _symmetry_equiv_pos_as_xyz
    x,y,z
loop_
    _atom_site_label
    _atom_site_type_symbol
    _atom_site_fract_x
    _atom_site_fract_y
    _atom_site_fract_z
    _atom_site_occupancy
    Zr0     Zr   0.24778   0.87949   0.86684   1.000
    Zr1     Zr   0.78408   0.62921   0.96745   1.000
    Zr2     Zr   0.75047   0.11729   0.36771   1.000
    Zr3     Zr   0.21575   0.36732   0.46705   1.000
    Zr4     Zr   0.25122   0.38168   0.86688   1.000
    Zr5     Zr   0.71591   0.12910   0.96768   1.000
    Zr6     Zr   0.74330   0.61695   0.36778   1.000
    Zr7     Zr   0.28386   0.86806   0.46716   1.000
    N8      N    0.30246   0.12581   0.66722   1.000
    O9      O    0.28578   0.23017   0.74839   1.000
    O10     O    0.29694   0.02078   0.58602   1.000
    N11     N    0.23745   0.45941   0.35226   1.000
    O12     O    0.43756   0.51508   0.35207   1.000
    O13     O    0.04390   0.51722   0.35073   1.000
    N14     N    0.69522   0.87225   0.16767   1.000
    O15     O    0.71083   0.76818   0.24905   1.000
    O16     O    0.70132   0.97691   0.08640   1.000
    N17     N    0.26158   0.96776   0.35254   1.000
    O18     O    0.45364   0.02145   0.35083   1.000
    O19     O    0.05991   0.01944   0.35220   1.000
    N20     N    0.80267   0.37215   0.16734   1.000
    O21     O    0.79759   0.47683   0.08607   1.000
    O22     O    0.78528   0.26818   0.24877   1.000
    N23     N    0.21816   0.28836   0.98232   1.000
    O24     O    0.01927   0.23178   0.98308   1.000
    O25     O    0.41295   0.23062   0.98431   1.000
    N26     N    0.27952   0.78775   0.98218   1.000
    O27     O    0.47941   0.73150   0.98295   1.000
    O28     O    0.08566   0.73023   0.98424   1.000
    N29     N    0.71895   0.20968   0.48221   1.000
    O30     O    0.51949   0.26557   0.48248   1.000
    O31     O    0.91319   0.26715   0.48398   1.000
    N32     N    0.76123   0.53944   0.85172   1.000
    O33     O    0.95376   0.48177   0.84993   1.000
    O34     O    0.56002   0.48369   0.85141   1.000
    N35     N    0.77965   0.70954   0.48205   1.000
    O36     O    0.58593   0.76741   0.48423   1.000
    O37     O    0.97963   0.76558   0.48182   1.000
    N38     N    0.19625   0.62540   0.66688   1.000
    O39     O    0.20155   0.52035   0.58571   1.000
    O40     O    0.21352   0.72920   0.74815   1.000
    N41     N    0.73763   0.03820   0.85249   1.000
    O42     O    0.93902   0.98225   0.85176   1.000
    O43     O    0.54532   0.98027   0.85064   1.000
    O44     O    0.27060   0.93731   0.39740   1.000
    O45     O    0.23080   0.31554   0.93720   1.000
    O46     O    0.73086   0.18302   0.43738   1.000
    O47     O    0.76524   0.68257   0.43737   1.000
    O48     O    0.77052   0.56539   0.89685   1.000
    O49     O    0.22872   0.43257   0.39715   1.000
    O50     O    0.26693   0.81424   0.93708   1.000
    O51     O    0.72901   0.06436   0.89752   1.000
loop_
    _geom_bond_atom_site_label_1
    _geom_bond_atom_site_label_2
    _geom_bond_distance
    _geom_bond_site_symmetry_2
    _ccdc_geom_bond_type
    N8     O9        2.29625      .   S
    Zr4    O9        3.34855      .   S
    N8     O10       2.30075      .   S
    Zr7    O10       3.35976  1_565   S
    N11    O12       1.58721      .   S
    Zr6    O12       2.57062      .   S
    N11    O13       1.55871      .   S
    Zr6    O13       2.51947  1_655   S
    N14    O15       2.29606      .   S
    Zr6    O15       3.34869      .   S
    N14    O16       2.29685      .   S
    Zr5    O16       3.35034  1_546   S
    N17    O18       1.52541  1_565   S
    Zr2    O18       2.47796      .   S
    N17    O19       1.56678  1_565   S
    Zr2    O19       2.55188  1_655   S
    N20    O21       2.29702      .   S
    Zr1    O21       3.35040  1_556   S
    N20    O22       2.29637      .   S
    Zr2    O22       3.34965      .   S
    N23    O24       1.58595      .   S
    Zr5    O24       2.56218  1_655   S
    N23    O25       1.56584      .   S
    Zr5    O25       2.54510      .   S
    N26    O27       1.58563      .   S
    Zr1    O27       2.55730      .   S
    N26    O28       1.56273      .   S
    Zr1    O28       2.54373  1_655   S
    N29    O30       1.58049      .   S
    Zr3    O30       2.54984      .   S
    N29    O31       1.56480      .   S
    Zr3    O31       2.54053  1_455   S
    N32    O33       1.55154      .   S
    Zr4    O33       2.50629  1_455   S
    N32    O34       1.59443      .   S
    Zr4    O34       2.58582      .   S
    N35    O36       1.56019      .   S
    Zr7    O36       2.53724      .   S
    N35    O37       1.58891      .   S
    Zr7    O37       2.56096  1_455   S
    N38    O39       2.29998      .   S
    Zr3    O39       3.35836      .   S
    N38    O40       2.29442      .   S
    Zr0    O40       3.34401      .   S
    N41    O42       1.59254  1_545   S
    Zr0    O42       2.58520  1_455   S
    N41    O43       1.55664  1_545   S
    Zr0    O43       2.51422      .   S
    Zr7    O44       1.80901      .   S
    N17    O44       1.07405      .   S
    Zr4    O45       1.80019      .   S
    N23    O45       1.06386      .   S
    Zr2    O46       1.78529      .   S
    N29    O46       1.05535      .   S
    Zr6    O47       1.78582      .   S
    N35    O47       1.05611      .   S
    Zr1    O48       1.78820      .   S
    N32    O48       1.05755      .   S
    Zr3    O49       1.78271      .   S
    N11    O49       1.05571      .   S
    Zr0    O50       1.79247      .   S
    N26    O50       1.06043      .   S
    Zr5    O51       1.78496      .   S
    N41    O51       1.05566      .   S
