# CIF file generated by openbabel 2.4.90, see http://openbabel.sf.net
data_I
_chemical_name_common ''
_cell_length_a 6.9295
_cell_length_b 13.793
_cell_length_c 21.991
_cell_angle_alpha 89.959
_cell_angle_beta 89.755
_cell_angle_gamma 89.82
_space_group_name_H-M_alt 'P 1'
_space_group_name_Hall 'P 1'
loop_
    _symmetry_equiv_pos_as_xyz
    x,y,z
loop_
    _atom_site_label
    _atom_site_type_symbol
    _atom_site_fract_x
    _atom_site_fract_y
    _atom_site_fract_z
    _atom_site_occupancy
    Zr0     Zr   0.24778   0.87949   0.86684   1.000
    Zr1     Zr   0.78408   0.62921   0.96745   1.000
    Zr2     Zr   0.75047   0.11729   0.36771   1.000
    Zr3     Zr   0.21575   0.36732   0.46705   1.000
    Zr4     Zr   0.25122   0.38168   0.86688   1.000
    Zr5     Zr   0.71591   0.12910   0.96768   1.000
    Zr6     Zr   0.74330   0.61695   0.36778   1.000
    Zr7     Zr   0.28386   0.86806   0.46716   1.000
    N8      N    0.30246   0.12581   0.66722   1.000
    O9      O    0.28578   0.23017   0.74839   1.000
    O10     O    0.29694   0.02078   0.58602   1.000
    N11     N    0.23745   0.45941   0.35226   1.000
    O12     O    0.43756   0.51508   0.35207   1.000
    O13     O    0.17664   0.43200   0.39629   1.000
    O14     O    0.04390   0.51722   0.35073   1.000
    O15     O    0.28079   0.43314   0.39802   1.000
    N16     N    0.69522   0.87225   0.16767   1.000
    O17     O    0.71083   0.76818   0.24905   1.000
    O18     O    0.70132   0.97691   0.08640   1.000
    N19     N    0.26158   0.96776   0.35254   1.000
    O20     O    0.45364   0.02145   0.35083   1.000
    O21     O    0.21856   0.93837   0.39839   1.000
    O22     O    0.32265   0.93625   0.39642   1.000
    O23     O    0.05991   0.01944   0.35220   1.000
    N24     N    0.80267   0.37215   0.16734   1.000
    O25     O    0.79759   0.47683   0.08607   1.000
    O26     O    0.78528   0.26818   0.24877   1.000
    N27     N    0.21816   0.28836   0.98232   1.000
    O28     O    0.17888   0.31442   0.93596   1.000
    O29     O    0.01927   0.23178   0.98308   1.000
    O30     O    0.28271   0.31666   0.93843   1.000
    O31     O    0.41295   0.23062   0.98431   1.000
    N32     N    0.27952   0.78775   0.98218   1.000
    O33     O    0.21507   0.81585   0.93844   1.000
    O34     O    0.47941   0.73150   0.98295   1.000
    O35     O    0.31878   0.81263   0.93573   1.000
    O36     O    0.08566   0.73023   0.98424   1.000
    N37     N    0.71895   0.20968   0.48221   1.000
    O38     O    0.67890   0.18407   0.43631   1.000
    O39     O    0.78282   0.18198   0.43844   1.000
    O40     O    0.51949   0.26557   0.48248   1.000
    O41     O    0.91319   0.26715   0.48398   1.000
    N42     N    0.76123   0.53944   0.85172   1.000
    O43     O    0.95376   0.48177   0.84993   1.000
    O44     O    0.56002   0.48369   0.85141   1.000
    O45     O    0.71847   0.56428   0.89788   1.000
    O46     O    0.82256   0.56651   0.89582   1.000
    N47     N    0.77965   0.70954   0.48205   1.000
    O48     O    0.58593   0.76741   0.48423   1.000
    O49     O    0.97963   0.76558   0.48182   1.000
    O50     O    0.81721   0.68417   0.43578   1.000
    O51     O    0.71326   0.68096   0.43897   1.000
    N52     N    0.19625   0.62540   0.66688   1.000
    O53     O    0.20155   0.52035   0.58571   1.000
    O54     O    0.21352   0.72920   0.74815   1.000
    N55     N    0.73763   0.03820   0.85249   1.000
    O56     O    0.67697   0.06497   0.89677   1.000
    O57     O    0.93902   0.98225   0.85176   1.000
    O58     O    0.78106   0.06375   0.89827   1.000
    O59     O    0.54532   0.98027   0.85064   1.000
loop_
    _geom_bond_atom_site_label_1
    _geom_bond_atom_site_label_2
    _geom_bond_distance
    _geom_bond_site_symmetry_2
    _ccdc_geom_bond_type
    N8     O9        2.29625      .   S
    Zr4    O9        3.34855      .   S
    N8     O10       2.30075      .   S
    Zr7    O10       3.35976  1_565   S
    N11    O12       1.58721      .   S
    Zr6    O12       2.57062      .   S
    N11    O13       1.12025      .   S
    Zr3    O13       1.81410      .   S
    N11    O14       1.55871      .   S
    Zr6    O14       2.51947  1_655   S
    N11    O15       1.11153      .   S
    Zr3    O15       1.82389      .   S
    N16    O17       2.29606      .   S
    Zr6    O17       3.34869      .   S
    N16    O18       2.29685      .   S
    Zr5    O18       3.35034  1_546   S
    N19    O20       1.52541  1_565   S
    Zr2    O20       2.47796      .   S
    N19    O21       1.12590      .   S
    Zr7    O21       1.85288      .   S
    N19    O22       1.14053      .   S
    Zr7    O22       1.83661      .   S
    N19    O23       1.56678  1_565   S
    Zr2    O23       2.55188  1_655   S
    N24    O25       2.29702      .   S
    Zr1    O25       3.35040  1_556   S
    N24    O26       2.29637      .   S
    Zr2    O26       3.34965      .   S
    N27    O28       1.11528      .   S
    Zr4    O28       1.84784      .   S
    N27    O29       1.58595      .   S
    Zr5    O29       2.56218  1_655   S
    N27    O30       1.13172      .   S
    Zr4    O30       1.82425      .   S
    N27    O31       1.56584      .   S
    Zr5    O31       2.54510      .   S
    N32    O33       1.12994      .   S
    Zr0    O33       1.81591      .   S
    N32    O34       1.58563      .   S
    Zr1    O34       2.55730      .   S
    N32    O35       1.11039      .   S
    Zr0    O35       1.84094      .   S
    N32    O36       1.56273      .   S
    Zr1    O36       2.54373  1_655   S
    N37    O38       1.10646      .   S
    Zr2    O38       1.83390      .   S
    N37    O39       1.12436      .   S
    Zr2    O39       1.80893      .   S
    N37    O40       1.58049      .   S
    Zr3    O40       2.54984      .   S
    N37    O41       1.56480      .   S
    Zr3    O41       2.54053  1_455   S
    N42    O43       1.55154      .   S
    Zr4    O43       2.50629  1_455   S
    N42    O44       1.59443      .   S
    Zr4    O44       2.58582      .   S
    N42    O45       1.11032      .   S
    Zr1    O45       1.83298      .   S
    N42    O46       1.12496      .   S
    Zr1    O46       1.81578      .   S
    N47    O48       1.56019      .   S
    Zr7    O48       2.53724      .   S
    N47    O49       1.58891      .   S
    Zr7    O49       2.56096  1_455   S
    N47    O50       1.10608      .   S
    Zr6    O50       1.83561      .   S
    N47    O51       1.12697      .   S
    Zr6    O51       1.80875      .   S
    N52    O53       2.29998      .   S
    Zr3    O53       3.35836      .   S
    N52    O54       2.29442      .   S
    Zr0    O54       3.34401      .   S
    N55    O56       1.12131      .   S
    Zr5    O56       1.81492      .   S
    N55    O57       1.59254  1_545   S
    Zr0    O57       2.58520  1_455   S
    N55    O58       1.11012      .   S
    Zr5    O58       1.82733      .   S
    N55    O59       1.55664  1_545   S
    Zr0    O59       2.51422      .   S
