# CIF file generated by openbabel 2.4.90, see http://openbabel.sf.net
data_I
_chemical_name_common ''
_cell_length_a 18.743
_cell_length_b 18.765
_cell_length_c 18.762
_cell_angle_alpha 59.98
_cell_angle_beta 60.083
_cell_angle_gamma 60.109
_space_group_name_H-M_alt 'P 1'
_space_group_name_Hall 'P 1'
loop_
    _symmetry_equiv_pos_as_xyz
    x,y,z
loop_
    _atom_site_label
    _atom_site_type_symbol
    _atom_site_fract_x
    _atom_site_fract_y
    _atom_site_fract_z
    _atom_site_occupancy
    C0      C    0.56537   0.00017   0.43460   1.000
    C1      C    0.00023   0.56534   0.99996   1.000
    C2      C    0.43460   0.99982   0.56541   1.000
    C3      C    0.99971   0.43470   0.10000   1.000
    C4      C    0.56537   0.43465   0.00013   1.000
    C5      C    0.99977   0.00006   0.43460   1.000
    C6      C    0.43461   0.56530   0.99980   1.000
    C7      C    0.00020   0.99991   0.56538   1.000
    C8      C    0.56539   0.00009   0.80000   1.000
    C9      C    0.99991   0.43459   0.56500   1.000
    C10     C    0.43452   0.99988   0.99996   1.000
    C11     C    0.00004   0.56538   0.43451   1.000
    C12     C    0.73413   0.73416   0.50424   1.000
    C13     C    0.73406   0.73449   0.02730   1.000
    C14     C    0.50426   0.02790   0.73400   1.000
    C15     C    0.02729   0.50463   0.73401   1.000
    C16     C    0.73405   0.50515   0.02700   1.000
    C17     C    0.73418   0.02658   0.50518   1.000
    C18     C    0.50476   0.73382   0.73365   1.000
    C19     C    0.02810   0.73394   0.73364   1.000
    C20     C    0.73405   0.02771   0.73423   1.000
    C21     C    0.73426   0.50474   0.73405   1.000
    C22     C    0.50434   0.73398   0.02771   1.000
    C23     C    0.02802   0.73394   0.50412   1.000
    C24     C    0.26583   0.26583   0.49577   1.000
    C25     C    0.26581   0.26554   0.97267   1.000
    C26     C    0.97265   0.49535   0.26605   1.000
    C27     C    0.49572   0.97207   0.26597   1.000
    C28     C    0.49563   0.26587   0.97229   1.000
    C29     C    0.97194   0.26599   0.49590   1.000
    C30     C    0.26574   0.49520   0.26591   1.000
    C31     C    0.26592   0.97222   0.26582   1.000
    C32     C    0.97187   0.26606   0.26630   1.000
    C33     C    0.49523   0.26611   0.26639   1.000
    C34     C    0.26601   0.49478   0.97303   1.000
    C35     C    0.26583   0.97339   0.49482   1.000
    C36     C    0.25669   0.97150   0.38557   1.000
    C37     C    0.97067   0.25684   0.38632   1.000
    C38     C    0.38573   0.38592   0.25691   1.000
    C39     C    0.38607   0.38560   0.97132   1.000
    C40     C    0.25661   0.38579   0.38610   1.000
    C41     C    0.97089   0.38596   0.38624   1.000
    C42     C    0.38592   0.25652   0.97127   1.000
    C43     C    0.38604   0.97091   0.25670   1.000
    C44     C    0.25670   0.38543   0.97152   1.000
    C45     C    0.97094   0.38598   0.25697   1.000
    C46     C    0.38604   0.97137   0.38567   1.000
    C47     C    0.38575   0.25677   0.38629   1.000
    C48     C    0.02930   0.74313   0.61368   1.000
    C49     C    0.74330   0.02845   0.61445   1.000
    C50     C    0.61426   0.61403   0.74308   1.000
    C51     C    0.61394   0.61430   0.02870   1.000
    C52     C    0.61422   0.74320   0.61372   1.000
    C53     C    0.61396   0.02860   0.61431   1.000
    C54     C    0.74326   0.61455   0.02851   1.000
    C55     C    0.02901   0.61401   0.74305   1.000
    C56     C    0.61400   0.74342   0.02876   1.000
    C57     C    0.61394   0.02904   0.74331   1.000
    C58     C    0.02906   0.61400   0.61380   1.000
    C59     C    0.74337   0.61418   0.61388   1.000
    C60     C    0.57001   0.56977   0.83672   1.000
    C61     C    0.56968   0.56998   0.02361   1.000
    C62     C    0.83695   0.02311   0.57000   1.000
    C63     C    0.02404   0.83674   0.56946   1.000
    C64     C    0.56979   0.83693   0.02358   1.000
    C65     C    0.56972   0.02392   0.83683   1.000
    C66     C    0.83688   0.56996   0.56960   1.000
    C67     C    0.02389   0.56976   0.56960   1.000
    C68     C    0.56973   0.02339   0.57008   1.000
    C69     C    0.56998   0.83677   0.56948   1.000
    C70     C    0.83687   0.57037   0.02334   1.000
    C71     C    0.02372   0.56981   0.83672   1.000
    C72     C    0.42996   0.43018   0.16327   1.000
    C73     C    0.43035   0.42991   0.97640   1.000
    C74     C    0.97595   0.16322   0.43052   1.000
    C75     C    0.16304   0.97684   0.42973   1.000
    C76     C    0.16309   0.42966   0.97669   1.000
    C77     C    0.97624   0.43020   0.16300   1.000
    C78     C    0.42998   0.16320   0.43056   1.000
    C79     C    0.43028   0.97659   0.42990   1.000
    C80     C    0.97608   0.43018   0.43045   1.000
    C81     C    0.16310   0.43002   0.43030   1.000
    C82     C    0.43011   0.16302   0.97643   1.000
    C83     C    0.43025   0.97602   0.16318   1.000
    C84     C    0.29982   0.97161   0.42857   1.000
    C85     C    0.97063   0.29995   0.30018   1.000
    C86     C    0.42879   0.29993   0.30017   1.000
    C87     C    0.29990   0.42848   0.97147   1.000
    C88     C    0.29967   0.42884   0.29993   1.000
    C89     C    0.97064   0.29991   0.42939   1.000
    C90     C    0.42911   0.29966   0.97110   1.000
    C91     C    0.29985   0.97101   0.29968   1.000
    C92     C    0.29977   0.29947   0.97131   1.000
    C93     C    0.97101   0.42898   0.30005   1.000
    C94     C    0.42917   0.97091   0.29978   1.000
    C95     C    0.29970   0.29976   0.42928   1.000
    C96     C    0.02931   0.70005   0.57063   1.000
    C97     C    0.70013   0.02893   0.70035   1.000
    C98     C    0.70032   0.57111   0.70005   1.000
    C99     C    0.57086   0.70024   0.02892   1.000
    C100    C    0.57120   0.70003   0.69984   1.000
    C101    C    0.70018   0.02835   0.57144   1.000
    C102    C    0.70011   0.57146   0.02856   1.000
    C103    C    0.02933   0.70004   0.69982   1.000
    C104    C    0.70015   0.70051   0.02872   1.000
    C105    C    0.57082   0.02905   0.70020   1.000
    C106    C    0.02892   0.57100   0.70000   1.000
    C107    C    0.70027   0.70022   0.57070   1.000
    C108    C    0.61394   0.49232   0.87335   1.000
    C109    C    0.49215   0.61382   0.02060   1.000
    C110    C    0.87362   0.02011   0.61422   1.000
    C111    C    0.02083   0.87332   0.49200   1.000
    C112    C    0.61378   0.87349   0.02066   1.000
    C113    C    0.49220   0.02087   0.87325   1.000
    C114    C    0.87340   0.61390   0.49210   1.000
    C115    C    0.02085   0.49225   0.61366   1.000
    C116    C    0.61369   0.02056   0.49257   1.000
    C117    C    0.49250   0.87309   0.61345   1.000
    C118    C    0.87314   0.49291   0.02046   1.000
    C119    C    0.02092   0.61373   0.87318   1.000
    C120    C    0.50746   0.38632   0.12688   1.000
    C121    C    0.38641   0.50739   0.97921   1.000
    C122    C    0.97881   0.12678   0.38655   1.000
    C123    C    0.12674   0.97978   0.50720   1.000
    C124    C    0.12637   0.38581   0.97965   1.000
    C125    C    0.97946   0.50765   0.12672   1.000
    C126    C    0.38604   0.12656   0.50805   1.000
    C127    C    0.50779   0.97963   0.38598   1.000
    C128    C    0.97900   0.38622   0.50802   1.000
    C129    C    0.12669   0.50754   0.38625   1.000
    C130    C    0.50764   0.12666   0.97942   1.000
    C131    C    0.38624   0.97891   0.12660   1.000
    C132    C    0.38603   0.50763   0.12664   1.000
    C133    C    0.50787   0.38608   0.97939   1.000
    C134    C    0.12637   0.97986   0.38580   1.000
    C135    C    0.97918   0.12664   0.50790   1.000
    C136    C    0.38610   0.12645   0.97939   1.000
    C137    C    0.50776   0.97911   0.12675   1.000
    C138    C    0.12658   0.38609   0.50780   1.000
    C139    C    0.97910   0.50770   0.38639   1.000
    C140    C    0.38630   0.97944   0.50740   1.000
    C141    C    0.50746   0.12688   0.38659   1.000
    C142    C    0.12685   0.50713   0.97955   1.000
    C143    C    0.97902   0.38630   0.12683   1.000
    C144    C    0.49252   0.61365   0.87311   1.000
    C145    C    0.61362   0.49252   0.02076   1.000
    C146    C    0.02117   0.87319   0.61343   1.000
    C147    C    0.87326   0.02016   0.49283   1.000
    C148    C    0.87357   0.61424   0.02038   1.000
    C149    C    0.02051   0.49236   0.87330   1.000
    C150    C    0.61393   0.87342   0.49199   1.000
    C151    C    0.49221   0.02033   0.61401   1.000
    C152    C    0.02099   0.61371   0.49202   1.000
    C153    C    0.87329   0.49244   0.61372   1.000
    C154    C    0.49228   0.87329   0.02055   1.000
    C155    C    0.61373   0.02100   0.87337   1.000
    O156    O    0.58950   0.46358   0.01045   1.000
    O157    O    0.53642   0.41048   0.06350   1.000
    O158    O    0.58966   0.46348   0.93674   1.000
    O159    O    0.53662   0.41036   0.98976   1.000
    O160    O    0.85522   0.59230   0.02186   1.000
    O161    O    0.93690   0.58979   0.01017   1.000
    O162    O    0.85500   0.53164   0.02190   1.000
    O163    O    0.53103   0.85511   0.02207   1.000
    O164    O    0.46340   0.93658   0.01026   1.000
    O165    O    0.53091   0.59190   0.02211   1.000
    O166    O    0.46338   0.58956   0.01020   1.000
    O167    O    0.59178   0.85521   0.02212   1.000
    O168    O    0.59165   0.53125   0.02219   1.000
    O169    O    0.79007   0.59246   0.02593   1.000
    O170    O    0.59189   0.79018   0.02617   1.000
    O171    O    0.59181   0.59214   0.02616   1.000
    O172    O    0.71708   0.53830   0.02778   1.000
    O173    O    0.71711   0.71750   0.02801   1.000
    O174    O    0.53760   0.71711   0.02831   1.000
    O175    O    0.72168   0.59301   0.02854   1.000
    O176    O    0.72171   0.65753   0.02862   1.000
    O177    O    0.65702   0.59288   0.02863   1.000
    O178    O    0.59240   0.65727   0.02881   1.000
    O179    O    0.65708   0.72197   0.02874   1.000
    O180    O    0.59243   0.72183   0.02884   1.000
    O181    O    0.40824   0.97747   0.14489   1.000
    O182    O    0.41038   0.98940   0.06328   1.000
    O183    O    0.40800   0.46891   0.14496   1.000
    O184    O    0.41032   0.53647   0.06322   1.000
    O185    O    0.97785   0.46892   0.14486   1.000
    O186    O    0.46900   0.97757   0.14497   1.000
    O187    O    0.97763   0.40825   0.14492   1.000
    O188    O    0.98936   0.41050   0.11342   1.000
    O189    O    0.46871   0.40825   0.14507   1.000
    O190    O    0.97359   0.40809   0.20999   1.000
    O191    O    0.98797   0.43245   0.13150   1.000
    O192    O    0.40814   0.97347   0.20994   1.000
    O193    O    0.40785   0.40805   0.21009   1.000
    O194    O    0.34294   0.97096   0.27819   1.000
    O195    O    0.40760   0.97091   0.27824   1.000
    O196    O    0.34270   0.40738   0.27842   1.000
    O197    O    0.40726   0.34292   0.27854   1.000
    O198    O    0.97098   0.40748   0.27851   1.000
    O199    O    0.97079   0.34297   0.27857   1.000
    O200    O    0.28289   0.97161   0.28275   1.000
    O201    O    0.28270   0.46202   0.28292   1.000
    O202    O    0.46244   0.97149   0.28288   1.000
    O203    O    0.97183   0.46216   0.28305   1.000
    O204    O    0.97125   0.28301   0.28324   1.000
    O205    O    0.46201   0.28302   0.28328   1.000
    O206    O    0.27827   0.97125   0.34263   1.000
    O207    O    0.40760   0.97114   0.34273   1.000
    O208    O    0.27814   0.40732   0.34302   1.000
    O209    O    0.97095   0.40747   0.34315   1.000
    O210    O    0.40727   0.27835   0.34323   1.000
    O211    O    0.97065   0.27840   0.34325   1.000
    O212    O    0.27826   0.97156   0.40707   1.000
    O213    O    0.20987   0.97417   0.40765   1.000
    O214    O    0.34293   0.97149   0.40712   1.000
    O215    O    0.40816   0.97398   0.40779   1.000
    O216    O    0.14470   0.97835   0.40777   1.000
    O217    O    0.06307   0.98996   0.41020   1.000
    O218    O    0.46903   0.97811   0.40794   1.000
    O219    O    0.53658   0.98990   0.41029   1.000
    O220    O    0.27815   0.34278   0.40769   1.000
    O221    O    0.20985   0.40791   0.40820   1.000
    O222    O    0.97077   0.34293   0.40782   1.000
    O223    O    0.97348   0.40807   0.40835   1.000
    O224    O    0.14489   0.46878   0.40827   1.000
    O225    O    0.06337   0.53646   0.41038   1.000
    O226    O    0.34272   0.27826   0.40779   1.000
    O227    O    0.40786   0.20998   0.40843   1.000
    O228    O    0.97066   0.27838   0.40786   1.000
    O229    O    0.97331   0.21003   0.40842   1.000
    O230    O    0.97759   0.46894   0.40842   1.000
    O231    O    0.98957   0.53654   0.41045   1.000
    O232    O    0.97738   0.14500   0.40854   1.000
    O233    O    0.98929   0.06342   0.41058   1.000
    O234    O    0.46872   0.14504   0.40858   1.000
    O235    O    0.53641   0.06353   0.41060   1.000
    O236    O    0.28283   0.97250   0.46170   1.000
    O237    O    0.28276   0.28280   0.46253   1.000
    O238    O    0.97129   0.28295   0.46265   1.000
    O239    O    0.14489   0.97831   0.46847   1.000
    O240    O    0.40829   0.97801   0.46865   1.000
    O241    O    0.14484   0.40806   0.46905   1.000
    O242    O    0.97754   0.40820   0.46924   1.000
    O243    O    0.97756   0.14493   0.46921   1.000
    O244    O    0.40801   0.14488   0.46930   1.000
    O245    O    0.01052   0.58955   0.46327   1.000
    O246    O    0.93672   0.58964   0.46330   1.000
    O247    O    0.58965   0.93680   0.46330   1.000
    O248    O    0.58953   0.01037   0.46359   1.000
    O249    O    0.01030   0.93669   0.46330   1.000
    O250    O    0.93652   0.01011   0.46372   1.000
    O251    O    0.59196   0.85510   0.53073   1.000
    O252    O    0.02244   0.85503   0.53073   1.000
    O253    O    0.02244   0.59174   0.53081   1.000
    O254    O    0.85514   0.59193   0.53085   1.000
    O255    O    0.59171   0.02198   0.53133   1.000
    O256    O    0.85511   0.02164   0.53142   1.000
    O257    O    0.02866   0.71700   0.53738   1.000
    O258    O    0.71720   0.71719   0.53747   1.000
    O259    O    0.71718   0.02747   0.53831   1.000
    O260    O    0.06347   0.98985   0.53629   1.000
    O261    O    0.41045   0.98963   0.53641   1.000
    O262    O    0.06325   0.41034   0.53640   1.000
    O263    O    0.98969   0.06328   0.53664   1.000
    O264    O    0.98945   0.41040   0.53651   1.000
    O265    O    0.41032   0.06319   0.53673   1.000
    O266    O    0.01038   0.46342   0.58933   1.000
    O267    O    0.93660   0.46351   0.58936   1.000
    O268    O    0.01068   0.93655   0.58941   1.000
    O269    O    0.93691   0.01001   0.58980   1.000
    O270    O    0.46355   0.93645   0.58943   1.000
    O271    O    0.46341   0.01007   0.58971   1.000
    O272    O    0.02261   0.85497   0.59144   1.000
    O273    O    0.02667   0.78994   0.59157   1.000
    O274    O    0.53124   0.85493   0.59147   1.000
    O275    O    0.59210   0.78999   0.59160   1.000
    O276    O    0.85509   0.53120   0.59166   1.000
    O277    O    0.79013   0.59207   0.59174   1.000
    O278    O    0.02237   0.53100   0.59163   1.000
    O279    O    0.02647   0.59188   0.59170   1.000
    O280    O    0.85529   0.02161   0.59211   1.000
    O281    O    0.79013   0.02578   0.59223   1.000
    O282    O    0.53097   0.02186   0.59205   1.000
    O283    O    0.59184   0.02600   0.59220   1.000
    O284    O    0.02930   0.72159   0.59215   1.000
    O285    O    0.02918   0.65702   0.59221   1.000
    O286    O    0.65725   0.72171   0.59221   1.000
    O287    O    0.72182   0.65720   0.59229   1.000
    O288    O    0.65707   0.02848   0.59287   1.000
    O289    O    0.72174   0.02840   0.59295   1.000
    O290    O    0.02931   0.72158   0.65675   1.000
    O291    O    0.59271   0.72162   0.65678   1.000
    O292    O    0.02899   0.59250   0.65690   1.000
    O293    O    0.72184   0.59265   0.65697   1.000
    O294    O    0.59239   0.02883   0.65726   1.000
    O295    O    0.72172   0.02869   0.65740   1.000
    O296    O    0.02871   0.71699   0.71673   1.000
    O297    O    0.02917   0.65703   0.72144   1.000
    O298    O    0.53798   0.71693   0.71674   1.000
    O299    O    0.59273   0.65703   0.72146   1.000
    O300    O    0.02811   0.53782   0.71701   1.000
    O301    O    0.02896   0.59251   0.72153   1.000
    O302    O    0.71729   0.53793   0.71705   1.000
    O303    O    0.65729   0.59257   0.72157   1.000
    O304    O    0.53754   0.02847   0.71710   1.000
    O305    O    0.59238   0.02905   0.72176   1.000
    O306    O    0.71709   0.02832   0.71729   1.000
    O307    O    0.65704   0.02899   0.72183   1.000
    O308    O    0.02636   0.59191   0.78989   1.000
    O309    O    0.59214   0.59190   0.78990   1.000
    O310    O    0.58966   0.01457   0.77165   1.000
    O311    O    0.53127   0.59171   0.85492   1.000
    O312    O    0.59198   0.53104   0.85504   1.000
    O313    O    0.02232   0.59177   0.85495   1.000
    O314    O    0.02212   0.53109   0.85501   1.000
    O315    O    0.53096   0.02239   0.85504   1.000
    O316    O    0.59173   0.02246   0.85510   1.000
    O317    O    0.56756   0.01201   0.81841   1.000
    O318    O    0.46357   0.58948   0.93646   1.000
    O319    O    0.01058   0.58954   0.93657   1.000
    O320    O    0.40752   0.27809   0.97119   1.000
    O321    O    0.40759   0.34263   0.97121   1.000
    O322    O    0.46237   0.28277   0.97169   1.000
    O323    O    0.34284   0.27800   0.97129   1.000
    O324    O    0.40802   0.20977   0.97385   1.000
    O325    O    0.27823   0.34245   0.97142   1.000
    O326    O    0.28279   0.28251   0.97199   1.000
    O327    O    0.34299   0.40704   0.97140   1.000
    O328    O    0.40821   0.40776   0.97386   1.000
    O329    O    0.27830   0.40696   0.97150   1.000
    O330    O    0.28295   0.46163   0.97225   1.000
    O331    O    0.20990   0.40755   0.97410   1.000
    O332    O    0.40838   0.46865   0.97781   1.000
    O333    O    0.46911   0.40799   0.97790   1.000
    O334    O    0.40811   0.14473   0.97791   1.000
    O335    O    0.46888   0.14484   0.97793   1.000
    O336    O    0.14497   0.46840   0.97812   1.000
    O337    O    0.14473   0.40774   0.97817   1.000
    O338    O    0.41051   0.53635   0.98951   1.000
    O339    O    0.41031   0.06317   0.98968   1.000
    O340    O    0.06354   0.53624   0.98976   1.000
    O341    O    0.52880   0.01048   0.83663   1.000
    O342    O    0.46336   0.01037   0.93661   1.000
    O343    O    0.98985   0.53650   0.06334   1.000
    O344    O    0.98958   0.47117   0.11336   1.000
    O345    O    0.58956   0.01054   0.83668   1.000
    O346    O    0.49999   1.00000   0.50001   1.000
    O347    O    0.49999   0.49998   0.99997   1.000
    O348    O    0.99998   0.99999   0.49999   1.000
    O349    O    0.99998   0.49998   0.49975   1.000
loop_
    _geom_bond_atom_site_label_1
    _geom_bond_atom_site_label_2
    _geom_bond_distance
    _geom_bond_site_symmetry_2
    _ccdc_geom_bond_type
    C4     O156      0.98686      .   S
    C145   O156      0.98686      .   S
    C4     O157      0.98797      .   S
    C120   O157      0.98797      .   S
    C4     O158      0.98793  1_554   S
    C108   O158      0.98793      .   S
    C4     O159      0.98694  1_554   S
    C133   O159      0.98694      .   S
    C148   O160      0.63924      .   S
    C70    O160      0.63924      .   S
    C148   O161      0.98718      .   S
    C1     O161      0.98718  1_456   S
    C118   O162      0.63934      .   S
    C70    O162      0.63934      .   S
    C154   O163      0.63934      .   S
    C64    O163      0.63934      .   S
    C154   O164      0.98741      .   S
    C10    O164      0.98741  1_556   S
    C109   O165      0.63938      .   S
    C61    O165      0.63938      .   S
    C109   O166      0.98724      .   S
    C6     O166      0.98724  1_556   S
    C112   O167      0.63930      .   S
    C64    O167      0.63930      .   S
    C145   O168      0.63928      .   S
    C61    O168      0.63928      .   S
    C70    O169      0.74767      .   S
    C54    O169      0.74767      .   S
    C64    O170      0.74755      .   S
    C56    O170      0.74755      .   S
    C61    O171      0.74750      .   S
    C51    O171      0.74750      .   S
    C16    O172      0.54373      .   S
    C102   O172      0.54373      .   S
    C13    O173      0.54346      .   S
    C104   O173      0.54346      .   S
    C22    O174      0.54379      .   S
    C99    O174      0.54379      .   S
    C54    O175      0.69976      .   S
    C102   O175      0.69976      .   S
    C54    O176      0.69977      .   S
    C104   O176      0.69977      .   S
    C102   O177      0.69972      .   S
    C51    O177      0.69972      .   S
    C51    O178      0.69971      .   S
    C99    O178      0.69971      .   S
    C104   O179      0.69985      .   S
    C56    O179      0.69985      .   S
    C56    O180      0.69977      .   S
    C99    O180      0.69977      .   S
    C131   O181      0.63975      .   S
    C83    O181      0.63975      .   S
    C131   O182      0.98665      .   S
    C10    O182      0.98665  1_556   S
    C132   O183      0.63930      .   S
    C72    O183      0.63930      .   S
    C132   O184      0.98835      .   S
    C6     O184      0.98835  1_556   S
    C125   O185      0.63946      .   S
    C77    O185      0.63946      .   S
    C137   O186      0.63931      .   S
    C83    O186      0.63931      .   S
    C143   O187      0.63700      .   S
    C77    O187      0.63700      .   S
    C143   O188      0.48148      .   S
    C3     O188      0.48148      .   S
    C120   O189      0.63933      .   S
    C72    O189      0.63933      .   S
    C77    O190      0.75009      .   S
    C45    O190      0.75009      .   S
    C77    O191      0.50406      .   S
    C3     O191      0.50406      .   S
    C83    O192      0.74750      .   S
    C43    O192      0.74750      .   S
    C72    O193      0.74785      .   S
    C38    O193      0.74785      .   S
    C43    O194      0.69980      .   S
    C91    O194      0.69980      .   S
    C43    O195      0.69978      .   S
    C94    O195      0.69978      .   S
    C38    O196      0.69986      .   S
    C88    O196      0.69986      .   S
    C38    O197      0.69978      .   S
    C86    O197      0.69978      .   S
    C45    O198      0.69977      .   S
    C93    O198      0.69977      .   S
    C45    O199      0.69976      .   S
    C85    O199      0.69976      .   S
    C31    O200      0.54377      .   S
    C91    O200      0.54377      .   S
    C30    O201      0.54376      .   S
    C88    O201      0.54376      .   S
    C27    O202      0.54376      .   S
    C94    O202      0.54376      .   S
    C26    O203      0.54375      .   S
    C93    O203      0.54375      .   S
    C32    O204      0.54404      .   S
    C85    O204      0.54404      .   S
    C33    O205      0.54376      .   S
    C86    O205      0.54376      .   S
    C91    O206      0.69973      .   S
    C36    O206      0.69973      .   S
    C94    O207      0.69963      .   S
    C46    O207      0.69963      .   S
    C88    O208      0.69986      .   S
    C40    O208      0.69986      .   S
    C93    O209      0.69975      .   S
    C41    O209      0.69975      .   S
    C86    O210      0.69982      .   S
    C47    O210      0.69982      .   S
    C85    O211      0.69980      .   S
    C37    O211      0.69980      .   S
    C36    O212      0.69969      .   S
    C84    O212      0.69969      .   S
    C36    O213      0.74744      .   S
    C75    O213      0.74744      .   S
    C46    O214      0.69966      .   S
    C84    O214      0.69966      .   S
    C46    O215      0.74735      .   S
    C79    O215      0.74735      .   S
    C134   O216      0.63927      .   S
    C75    O216      0.63927      .   S
    C134   O217      0.98689      .   S
    C5     O217      0.98689  1_645   S
    C127   O218      0.63928      .   S
    C79    O218      0.63928      .   S
    C127   O219      0.98663      .   S
    C0     O219      0.98663  1_545   S
    C40    O220      0.69985      .   S
    C95    O220      0.69985      .   S
    C40    O221      0.74792      .   S
    C81    O221      0.74792      .   S
    C41    O222      0.69972      .   S
    C89    O222      0.69972      .   S
    C41    O223      0.74762      .   S
    C80    O223      0.74762      .   S
    C129   O224      0.63933      .   S
    C81    O224      0.63933      .   S
    C129   O225      0.98790      .   S
    C11    O225      0.98790      .   S
    C47    O226      0.69989      .   S
    C95    O226      0.69989      .   S
    C47    O227      0.74777      .   S
    C78    O227      0.74777      .   S
    C37    O228      0.69974      .   S
    C89    O228      0.69974      .   S
    C37    O229      0.74748      .   S
    C74    O229      0.74748      .   S
    C139   O230      0.63930      .   S
    C80    O230      0.63930      .   S
    C139   O231      0.98685      .   S
    C11    O231      0.98685  1_455   S
    C122   O232      0.63929      .   S
    C74    O232      0.63929      .   S
    C122   O233      0.98721      .   S
    C5     O233      0.98721      .   S
    C141   O234      0.63935      .   S
    C78    O234      0.63935      .   S
    C141   O235      0.98778      .   S
    C0     O235      0.98778      .   S
    C84    O236      0.54369      .   S
    C35    O236      0.54369      .   S
    C95    O237      0.54379      .   S
    C24    O237      0.54379      .   S
    C89    O238      0.54382      .   S
    C29    O238      0.54382      .   S
    C75    O239      0.63934      .   S
    C123   O239      0.63934      .   S
    C79    O240      0.63932      .   S
    C140   O240      0.63932      .   S
    C81    O241      0.63885      .   S
    C138   O241      0.63885      .   S
    C80    O242      0.63928      .   S
    C128   O242      0.63928      .   S
    C74    O243      0.63870      .   S
    C135   O243      0.63870      .   S
    C78    O244      0.63926      .   S
    C126   O244      0.63926      .   S
    C11    O245      0.98714      .   S
    C152   O245      0.98714      .   S
    C11    O246      0.98780  1_455   S
    C114   O246      0.98780      .   S
    C0     O247      0.98770  1_545   S
    C150   O247      0.98770      .   S
    C0     O248      0.98664      .   S
    C116   O248      0.98664      .   S
    C5     O249      0.98715  1_645   S
    C111   O249      0.98715      .   S
    C5     O250      0.98681      .   S
    C147   O250      0.98681      .   S
    C150   O251      0.63930      .   S
    C69    O251      0.63930      .   S
    C111   O252      0.63932      .   S
    C63    O252      0.63932      .   S
    C152   O253      0.63930      .   S
    C67    O253      0.63930      .   S
    C114   O254      0.63890      .   S
    C66    O254      0.63890      .   S
    C116   O255      0.63935      .   S
    C68    O255      0.63935      .   S
    C147   O256      0.63686      .   S
    C62    O256      0.63686      .   S
    C23    O257      0.54380      .   S
    C96    O257      0.54380      .   S
    C12    O258      0.54364      .   S
    C107   O258      0.54364      .   S
    C17    O259      0.54375      .   S
    C101   O259      0.54375      .   S
    C123   O260      0.98696      .   S
    C7     O260      0.98696      .   S
    C140   O261      0.98673      .   S
    C2     O261      0.98673      .   S
    C138   O262      0.98726      .   S
    C9     O262      0.98726  1_655   S
    C135   O263      0.98706      .   S
    C7     O263      0.98706  1_465   S
    C128   O264      0.98287      .   S
    C9     O264      0.98287      .   S
    C126   O265      0.98760      .   S
    C2     O265      0.98760  1_565   S
    C9     O266      0.99087  1_655   S
    C115   O266      0.99087      .   S
    C9     O267      0.98838      .   S
    C153   O267      0.98838      .   S
    C7     O268      0.98727      .   S
    C146   O268      0.98727      .   S
    C7     O269      0.98671  1_465   S
    C110   O269      0.98671      .   S
    C2     O270      0.98797      .   S
    C117   O270      0.98797      .   S
    C2     O271      0.98659  1_565   S
    C151   O271      0.98659      .   S
    C63    O272      0.63927      .   S
    C146   O272      0.63927      .   S
    C63    O273      0.74748      .   S
    C48    O273      0.74748      .   S
    C69    O274      0.63934      .   S
    C117   O274      0.63934      .   S
    C69    O275      0.74774      .   S
    C52    O275      0.74774      .   S
    C66    O276      0.63958      .   S
    C153   O276      0.63958      .   S
    C66    O277      0.74809      .   S
    C59    O277      0.74809      .   S
    C67    O278      0.63929      .   S
    C115   O278      0.63929      .   S
    C67    O279      0.74757      .   S
    C58    O279      0.74757      .   S
    C62    O280      0.64175      .   S
    C110   O280      0.64175      .   S
    C62    O281      0.74746      .   S
    C49    O281      0.74746      .   S
    C68    O282      0.63928      .   S
    C151   O282      0.63928      .   S
    C68    O283      0.74729      .   S
    C53    O283      0.74729      .   S
    C96    O284      0.69978      .   S
    C48    O284      0.69978      .   S
    C96    O285      0.69972      .   S
    C58    O285      0.69972      .   S
    C107   O286      0.69994      .   S
    C52    O286      0.69994      .   S
    C107   O287      0.69991      .   S
    C59    O287      0.69991      .   S
    C101   O288      0.69965      .   S
    C53    O288      0.69965      .   S
    C101   O289      0.69963      .   S
    C49    O289      0.69963      .   S
    C48    O290      0.69976      .   S
    C103   O290      0.69976      .   S
    C52    O291      0.69982      .   S
    C100   O291      0.69982      .   S
    C58    O292      0.69981      .   S
    C106   O292      0.69981      .   S
    C59    O293      0.69988      .   S
    C98    O293      0.69988      .   S
    C53    O294      0.69960      .   S
    C105   O294      0.69960      .   S
    C49    O295      0.69978      .   S
    C97    O295      0.69978      .   S
    C103   O296      0.54373      .   S
    C19    O296      0.54373      .   S
    C103   O297      0.69973      .   S
    C55    O297      0.69973      .   S
    C100   O298      0.54377      .   S
    C18    O298      0.54377      .   S
    C100   O299      0.69977      .   S
    C50    O299      0.69977      .   S
    C106   O300      0.54375      .   S
    C15    O300      0.54375      .   S
    C106   O301      0.69975      .   S
    C55    O301      0.69975      .   S
    C98    O302      0.54378      .   S
    C21    O302      0.54378      .   S
    C98    O303      0.69986      .   S
    C50    O303      0.69986      .   S
    C105   O304      0.54377      .   S
    C14    O304      0.54377      .   S
    C105   O305      0.69989      .   S
    C57    O305      0.69989      .   S
    C97    O306      0.54376      .   S
    C20    O306      0.54376      .   S
    C97    O307      0.69980      .   S
    C57    O307      0.69980      .   S
    C55    O308      0.74767      .   S
    C71    O308      0.74767      .   S
    C50    O309      0.74787      .   S
    C60    O309      0.74787      .   S
    C57    O310      0.54856      .   S
    C8     O310      0.54856      .   S
    C60    O311      0.63934      .   S
    C144   O311      0.63934      .   S
    C60    O312      0.63928      .   S
    C108   O312      0.63928      .   S
    C71    O313      0.63934      .   S
    C119   O313      0.63934      .   S
    C71    O314      0.63929      .   S
    C149   O314      0.63929      .   S
    C65    O315      0.63931      .   S
    C113   O315      0.63931      .   S
    C65    O316      0.63930      .   S
    C155   O316      0.63930      .   S
    C65    O317      0.52094      .   S
    C8     O317      0.52094      .   S
    C144   O318      0.98759      .   S
    C6     O318      0.98759      .   S
    C119   O319      0.98775      .   S
    C1     O319      0.98775      .   S
    C90    O320      0.69979      .   S
    C42    O320      0.69979      .   S
    C90    O321      0.69970      .   S
    C39    O321      0.69970      .   S
    C90    O322      0.54376      .   S
    C28    O322      0.54376      .   S
    C42    O323      0.69987      .   S
    C92    O323      0.69987      .   S
    C42    O324      0.74758      .   S
    C82    O324      0.74758      .   S
    C92    O325      0.69978      .   S
    C44    O325      0.69978      .   S
    C92    O326      0.54381      .   S
    C25    O326      0.54381      .   S
    C39    O327      0.69968      .   S
    C87    O327      0.69968      .   S
    C39    O328      0.74750      .   S
    C73    O328      0.74750      .   S
    C87    O329      0.69977      .   S
    C44    O329      0.69977      .   S
    C87    O330      0.54370      .   S
    C34    O330      0.54370      .   S
    C44    O331      0.74765      .   S
    C76    O331      0.74765      .   S
    C73    O332      0.63929      .   S
    C121   O332      0.63929      .   S
    C73    O333      0.63928      .   S
    C133   O333      0.63928      .   S
    C82    O334      0.63926      .   S
    C136   O334      0.63926      .   S
    C82    O335      0.63934      .   S
    C130   O335      0.63934      .   S
    C76    O336      0.63933      .   S
    C142   O336      0.63933      .   S
    C76    O337      0.63926      .   S
    C124   O337      0.63926      .   S
    C121   O338      0.98653      .   S
    C6     O338      0.98653      .   S
    C136   O339      0.98711      .   S
    C10    O339      0.98711  1_565   S
    C142   O340      0.98744      .   S
    C1     O340      0.98744      .   S
    C113   O341      0.71502      .   S
    C8     O341      0.71502      .   S
    C113   O342      0.98735      .   S
    C10    O342      0.98735  1_565   S
    C125   O343      0.98742      .   S
    C1     O343      0.98742  1_456   S
    C125   O344      0.74973      .   S
    C3     O344      0.74973      .   S
    C155   O345      1.11903      .   S
    C8     O345      1.11903      .   S
    C0     O346      1.22787  1_545   S
    C2     O346      1.22787      .   S
    C4     O347      1.22772  1_554   S
    C6     O347      1.22772      .   S
    C5     O348      1.22816  1_545   S
    C7     O348      1.22816  1_455   S
    C9     O349      1.22527      .   S
    C11    O349      1.22527  1_455   S
