# CIF file generated by openbabel 2.4.90, see http://openbabel.sf.net
data_I
_chemical_name_common 'VESTA_phase_1'
_cell_length_a 14.648
_cell_length_b 15.577
_cell_length_c 17.021
_cell_angle_alpha 89.998
_cell_angle_beta 89.997
_cell_angle_gamma 116.496
_space_group_name_H-M_alt 'P 1'
_space_group_name_Hall 'P 1'
loop_
    _symmetry_equiv_pos_as_xyz
    x,y,z
loop_
    _atom_site_label
    _atom_site_type_symbol
    _atom_site_fract_x
    _atom_site_fract_y
    _atom_site_fract_z
    _atom_site_occupancy
    Cd0     Cd   0.84422   0.21189   0.36870   1.000
    Cd1     Cd   0.12706   0.27316   0.36542   1.000
    Cd2     Cd   0.65569   0.28811   0.86876   1.000
    Cd3     Cd   0.37288   0.22683   0.86542   1.000
    Cd4     Cd   0.15573   0.78809   0.63127   1.000
    Cd5     Cd   0.87288   0.72682   0.63457   1.000
    Cd6     Cd   0.34425   0.71187   0.13124   1.000
    Cd7     Cd   0.62707   0.77315   0.13457   1.000
    H8      H    0.32770   0.34497   0.48200   1.000
    H9      H    0.44061   0.20129   0.65783   1.000
    H10     H    0.54518   0.31834   0.65623   1.000
    H11     H    0.35161   0.09680   0.57592   1.000
    H12     H    0.64757   0.15866   0.48486   1.000
    H13     H    0.65181   0.41697   0.58326   1.000
    H14     H    0.89783   0.42183   0.44354   1.000
    H15     H    0.93160   0.52145   0.31440   1.000
    H16     H    0.85053   0.63523   0.29067   1.000
    H17     H    0.91855   0.63412   0.37983   1.000
    H18     H    0.99398   0.93889   0.36901   1.000
    H19     H    0.78969   0.97085   0.20032   1.000
    H20     H    0.74904   0.69740   0.25686   1.000
    H21     H    0.17716   0.77355   0.21178   1.000
    H22     H    0.19202   0.51315   0.20573   1.000
    H23     H    0.09875   0.07200   0.43440   1.000
    H24     H    0.00000   0.31108   0.47688   1.000
    H25     H    0.96388   0.18693   0.48197   1.000
    H26     H    0.17222   0.15502   0.98200   1.000
    H27     H    0.05932   0.29870   0.15782   1.000
    H28     H    0.95472   0.18166   0.15624   1.000
    H29     H    0.14835   0.40320   0.07590   1.000
    H30     H    0.85232   0.34136   0.98489   1.000
    H31     H    0.84813   0.08304   0.08325   1.000
    H32     H    0.60209   0.07818   0.94357   1.000
    H33     H    0.56829   0.97849   0.81448   1.000
    H34     H    0.64941   0.86473   0.79068   1.000
    H35     H    0.58138   0.86583   0.87984   1.000
    H36     H    0.50597   0.56106   0.86905   1.000
    H37     H    0.71025   0.52912   0.70032   1.000
    H38     H    0.75090   0.80257   0.75687   1.000
    H39     H    0.32282   0.72642   0.71179   1.000
    H40     H    0.30796   0.98682   0.70575   1.000
    H41     H    0.40123   0.42799   0.93450   1.000
    H42     H    0.48139   0.18894   0.97689   1.000
    H43     H    0.53599   0.31309   0.98198   1.000
    H44     H    0.67225   0.65501   0.51799   1.000
    H45     H    0.55934   0.79869   0.34217   1.000
    H46     H    0.45477   0.68165   0.34376   1.000
    H47     H    0.64834   0.90318   0.42400   1.000
    H48     H    0.35237   0.84133   0.51513   1.000
    H49     H    0.34814   0.58301   0.41673   1.000
    H50     H    0.10211   0.57815   0.55645   1.000
    H51     H    0.06834   0.47853   0.68558   1.000
    H52     H    0.14942   0.36475   0.70933   1.000
    H53     H    0.08140   0.36586   0.62010   1.000
    H54     H    0.00597   0.06108   0.63090   1.000
    H55     H    0.21026   0.02913   0.79968   1.000
    H56     H    0.25090   0.30258   0.74314   1.000
    H57     H    0.82279   0.22643   0.78822   1.000
    H58     H    0.80793   0.48683   0.79426   1.000
    H59     H    0.90121   0.92799   0.56551   1.000
    H60     H    0.98144   0.68890   0.52311   1.000
    H61     H    0.03606   0.81306   0.51802   1.000
    H62     H    0.82773   0.84497   0.01000   1.000
    H63     H    0.94063   0.70128   0.84217   1.000
    H64     H    0.04524   0.81832   0.84375   1.000
    H65     H    0.85159   0.59679   0.92400   1.000
    H66     H    0.14763   0.65862   0.01510   1.000
    H67     H    0.15182   0.91694   0.91674   1.000
    H68     H    0.39785   0.92180   0.05640   1.000
    H69     H    0.43166   0.02149   0.18552   1.000
    H70     H    0.35053   0.13525   0.20932   1.000
    H71     H    0.41856   0.13414   0.12015   1.000
    H72     H    0.49398   0.43891   0.13094   1.000
    H73     H    0.28969   0.47085   0.29967   1.000
    H74     H    0.24904   0.19741   0.24312   1.000
    H75     H    0.67713   0.27356   0.28819   1.000
    H76     H    0.69198   0.01316   0.29425   1.000
    H77     H    0.59872   0.57200   0.06550   1.000
    H78     H    0.51856   0.81105   0.02310   1.000
    H79     H    0.46395   0.68690   0.01801   1.000
    C80     C    0.29897   0.26774   0.48968   1.000
    C81     C    0.35229   0.23043   0.53565   1.000
    C82     C    0.49305   0.25879   0.61974   1.000
    C83     C    0.31307   0.13109   0.54326   1.000
    C84     C    0.22013   0.07250   0.50747   1.000
    C85     C    0.17255   0.96486   0.51884   1.000
    C86     C    0.68393   0.23611   0.49403   1.000
    C87     C    0.63677   0.27888   0.54082   1.000
    C88     C    0.68502   0.37828   0.55004   1.000
    C89     C    0.78056   0.43104   0.51555   1.000
    C90     C    0.83654   0.53834   0.52813   1.000
    C91     C    0.82330   0.38312   0.47072   1.000
    C92     C    0.01436   0.40089   0.28553   1.000
    C93     C    0.05644   0.50572   0.26299   1.000
    C94     C    0.00000   0.55863   0.28420   1.000
    C95     C    0.04814   0.65664   0.26690   1.000
    C96     C    0.91388   0.67771   0.33070   1.000
    C97     C    0.87637   0.81159   0.31796   1.000
    C98     C    0.93029   0.91068   0.32786   1.000
    C99     C    0.89935   0.97018   0.28580   1.000
    C100    C    0.81663   0.92764   0.23441   1.000
    C101    C    0.79444   0.77433   0.26561   1.000
    C102    C    0.95093   0.07819   0.29612   1.000
    C103    C    0.14152   0.69742   0.22650   1.000
    C104    C    0.14923   0.55169   0.22342   1.000
    C105    C    0.17102   0.11497   0.46335   1.000
    C106    C    0.20096   0.23225   0.98967   1.000
    C107    C    0.14765   0.26956   0.03565   1.000
    C108    C    0.00688   0.24121   0.11974   1.000
    C109    C    0.18687   0.36891   0.04320   1.000
    C110    C    0.27985   0.42749   0.00749   1.000
    C111    C    0.32745   0.53509   0.01887   1.000
    C112    C    0.81597   0.26391   0.99405   1.000
    C113    C    0.86314   0.22114   0.04084   1.000
    C114    C    0.81492   0.12173   0.05003   1.000
    C115    C    0.71937   0.06897   0.01558   1.000
    C116    C    0.66340   0.96163   0.02814   1.000
    C117    C    0.67663   0.11689   0.97074   1.000
    C118    C    0.48556   0.09907   0.78565   1.000
    C119    C    0.44349   0.99422   0.76306   1.000
    C120    C    0.49566   0.94132   0.78420   1.000
    C121    C    0.45182   0.84332   0.76698   1.000
    C122    C    0.58606   0.82224   0.83077   1.000
    C123    C    0.62358   0.68837   0.81790   1.000
    C124    C    0.56965   0.58928   0.82789   1.000
    C125    C    0.60060   0.52979   0.78583   1.000
    C126    C    0.68331   0.57232   0.73442   1.000
    C127    C    0.70550   0.72564   0.76562   1.000
    C128    C    0.54900   0.42181   0.79613   1.000
    C129    C    0.35845   0.80254   0.72652   1.000
    C130    C    0.35076   0.94828   0.72343   1.000
    C131    C    0.32892   0.38502   0.96330   1.000
    C132    C    0.70098   0.73224   0.51032   1.000
    C133    C    0.64766   0.76955   0.46435   1.000
    C134    C    0.50690   0.74119   0.38026   1.000
    C135    C    0.68688   0.86889   0.45673   1.000
    C136    C    0.77982   0.92749   0.49252   1.000
    C137    C    0.82740   0.03512   0.48115   1.000
    C138    C    0.31601   0.76387   0.50597   1.000
    C139    C    0.36317   0.72110   0.45917   1.000
    C140    C    0.31492   0.62171   0.44996   1.000
    C141    C    0.21939   0.56894   0.48444   1.000
    C142    C    0.16340   0.46164   0.47186   1.000
    C143    C    0.17664   0.61686   0.52927   1.000
    C144    C    0.98559   0.59909   0.71445   1.000
    C145    C    0.94350   0.49426   0.73700   1.000
    C146    C    0.99568   0.44135   0.71579   1.000
    C147    C    0.95180   0.34334   0.73305   1.000
    C148    C    0.08607   0.32226   0.66924   1.000
    C149    C    0.12358   0.18839   0.68203   1.000
    C150    C    0.06965   0.08930   0.67210   1.000
    C151    C    0.10060   0.02980   0.71419   1.000
    C152    C    0.18331   0.07233   0.76559   1.000
    C153    C    0.20550   0.22565   0.73439   1.000
    C154    C    0.04902   0.92179   0.70387   1.000
    C155    C    0.85842   0.30256   0.77349   1.000
    C156    C    0.85072   0.44829   0.77650   1.000
    C157    C    0.82893   0.88502   0.53664   1.000
    C158    C    0.79899   0.76773   0.01032   1.000
    C159    C    0.85230   0.73042   0.96434   1.000
    C160    C    0.99307   0.75877   0.88025   1.000
    C161    C    0.81308   0.63107   0.95675   1.000
    C162    C    0.72010   0.57249   0.99250   1.000
    C163    C    0.67250   0.46490   0.98110   1.000
    C164    C    0.18397   0.73608   0.00594   1.000
    C165    C    0.13681   0.77884   0.95915   1.000
    C166    C    0.18503   0.87825   0.94997   1.000
    C167    C    0.28058   0.93101   0.98442   1.000
    C168    C    0.33655   0.03835   0.97185   1.000
    C169    C    0.32332   0.88310   0.02926   1.000
    C170    C    0.51438   0.90090   0.21436   1.000
    C171    C    0.55645   0.00576   0.23694   1.000
    C172    C    0.50429   0.05866   0.21575   1.000
    C173    C    0.54813   0.15666   0.23301   1.000
    C174    C    0.41388   0.17774   0.16922   1.000
    C175    C    0.37637   0.31160   0.18200   1.000
    C176    C    0.43029   0.41069   0.17210   1.000
    C177    C    0.39935   0.47019   0.21410   1.000
    C178    C    0.31664   0.42766   0.26557   1.000
    C179    C    0.29444   0.27434   0.23436   1.000
    C180    C    0.45095   0.57817   0.20386   1.000
    C181    C    0.64149   0.19744   0.27347   1.000
    C182    C    0.64919   0.05170   0.27657   1.000
    C183    C    0.67103   0.61496   0.03666   1.000
    N184    N    0.77462   0.28744   0.45921   1.000
    N185    N    0.76628   0.83211   0.22389   1.000
    N186    N    0.21079   0.21076   0.45370   1.000
    N187    N    0.19016   0.64574   0.20489   1.000
    N188    N    0.72528   0.21257   0.95925   1.000
    N189    N    0.73366   0.66786   0.72390   1.000
    N190    N    0.28916   0.28923   0.95372   1.000
    N191    N    0.30982   0.85423   0.70492   1.000
    N192    N    0.22533   0.71254   0.54078   1.000
    N193    N    0.23366   0.16786   0.77611   1.000
    N194    N    0.78916   0.78922   0.54629   1.000
    N195    N    0.80979   0.35424   0.79510   1.000
    N196    N    0.27466   0.78741   0.04070   1.000
    N197    N    0.26628   0.33212   0.27609   1.000
    N198    N    0.71079   0.71076   0.04620   1.000
    N199    N    0.69013   0.14575   0.29507   1.000
    O200    O    0.79149   0.57523   0.57034   1.000
    O201    O    0.44061   0.29628   0.57048   1.000
    O202    O    0.22305   0.93351   0.56114   1.000
    O203    O    0.54574   0.21758   0.57474   1.000
    O204    O    0.92379   0.58226   0.49607   1.000
    O205    O    0.89813   0.12189   0.27999   1.000
    O206    O    0.92316   0.36174   0.31149   1.000
    O207    O    0.00778   0.71757   0.28634   1.000
    O208    O    0.90347   0.75445   0.36528   1.000
    O209    O    0.07376   0.36233   0.27737   1.000
    O210    O    0.08623   0.91593   0.48712   1.000
    O211    O    0.04308   0.11548   0.31998   1.000
    O212    O    0.98897   0.24737   0.44638   1.000
    O213    O    0.70847   0.92474   0.07034   1.000
    O214    O    0.05931   0.20372   0.07047   1.000
    O215    O    0.27692   0.56646   0.06114   1.000
    O216    O    0.95417   0.28243   0.07475   1.000
    O217    O    0.57617   0.91770   0.99606   1.000
    O218    O    0.60181   0.37810   0.70000   1.000
    O219    O    0.57667   0.13818   0.81172   1.000
    O220    O    0.49219   0.78239   0.78636   1.000
    O221    O    0.59646   0.74550   0.86531   1.000
    O222    O    0.42621   0.13767   0.77736   1.000
    O223    O    0.41374   0.58403   0.98710   1.000
    O224    O    0.45688   0.38452   0.81998   1.000
    O225    O    0.51091   0.25266   0.94640   1.000
    O226    O    0.20846   0.42475   0.42965   1.000
    O227    O    0.55934   0.70370   0.42952   1.000
    O228    O    0.77690   0.06647   0.43884   1.000
    O229    O    0.45421   0.78240   0.42526   1.000
    O230    O    0.07615   0.41772   0.50393   1.000
    O231    O    0.10183   0.87809   0.72000   1.000
    O232    O    0.07678   0.63823   0.68840   1.000
    O233    O    0.99217   0.28241   0.71366   1.000
    O234    O    0.09647   0.24552   0.63470   1.000
    O235    O    0.92618   0.63765   0.72262   1.000
    O236    O    0.91371   0.08406   0.51288   1.000
    O237    O    0.95687   0.88450   0.68002   1.000
    O238    O    0.01097   0.75262   0.55361   1.000
    O239    O    0.29147   0.07524   0.92966   1.000
    O240    O    0.94063   0.79627   0.92951   1.000
    O241    O    0.72303   0.43352   0.93887   1.000
    O242    O    0.04578   0.71755   0.92524   1.000
    O243    O    0.42377   0.08228   0.00000   1.000
    O244    O    0.39815   0.62188   0.22000   1.000
    O245    O    0.42326   0.86179   0.18831   1.000
    O246    O    0.50776   0.21759   0.21363   1.000
    O247    O    0.40348   0.25447   0.13468   1.000
    O248    O    0.57374   0.86231   0.22263   1.000
    O249    O    0.58620   0.41596   0.01280   1.000
    O250    O    0.54307   0.61546   0.18000   1.000
    O251    O    0.48903   0.74733   0.05360   1.000
loop_
    _geom_bond_atom_site_label_1
    _geom_bond_atom_site_label_2
    _geom_bond_distance
    _geom_bond_site_symmetry_2
    _ccdc_geom_bond_type
    O243   C168      1.24506  1_554   S
    C164   H66       1.09098      .   S
    C164   N196      1.34404      .   S
    C164   C165      1.40216  1_554   S
    C110   C111      1.51331      .   S
    C110   C109      1.39577      .   S
    C110   C131      1.39432  1_554   S
    H62    C158      1.08297      .   S
    C158   N198      1.34410      .   S
    C158   C159      1.40168  1_554   S
    O249   C163      1.26898  1_554   S
    C115   C116      1.51332  1_545   S
    C115   C114      1.39712      .   S
    C115   C117      1.39594  1_554   S
    H79    O251      1.03907      .   S
    C111   O215      1.27541      .   S
    C111   O223      1.26948  1_554   S
    H78    O251      1.02890      .   S
    C116   O213      1.27300      .   S
    C116   O217      1.27233  1_554   S
    C169   N196      1.34893      .   S
    C169   H68       1.08702      .   S
    C169   C167      1.39590  1_554   S
    C107   C109      1.39574      .   S
    C107   O214      1.37596      .   S
    C107   C106      1.40173  1_554   S
    C183   N198      1.34792      .   S
    C183   H77       1.08544      .   S
    C183   C162      1.39399  1_554   S
    N196   Cd6       2.42258      .   S
    C113   C114      1.39468      .   S
    C113   O216      1.37362      .   S
    C113   C112      1.40218  1_554   S
    C109   H29       1.08729      .   S
    N198   Cd7       2.40298      .   S
    C114   H31       1.08690      .   S
    O215   Cd6       2.35250      .   S
    O213   Cd7       2.38341      .   S
    O214   C108      1.42644      .   S
    O216   C108      1.42733  1_655   S
    C108   H28       1.09441  1_455   S
    C108   H27       1.09471      .   S
    H71    C174      1.09770      .   S
    H72    C176      1.09010      .   S
    Cd6    O245      2.30763      .   S
    Cd6    N187      2.37751      .   S
    Cd6    O244      2.42038      .   S
    Cd7    O250      2.33418      .   S
    Cd7    O248      2.39871      .   S
    Cd7    N185      2.37545      .   S
    O247   C174      1.40006      .   S
    O247   C175      1.38338      .   S
    C174   H70       1.10312      .   S
    C174   O246      1.44433      .   S
    C176   C175      1.39528      .   S
    C176   C177      1.39648      .   S
    O250   C180      1.27431      .   S
    C175   C179      1.39633      .   S
    H69    C172      1.08736      .   S
    O245   C170      1.27428      .   S
    H19    C100      1.08734      .   S
    C180   C177      1.51535      .   S
    C180   O244      1.26771      .   S
    N187   C104      1.34959      .   S
    N187   C103      1.34258      .   S
    H22    C104      1.08621      .   S
    H21    C103      1.09044      .   S
    O246   C173      1.36384      .   S
    C177   C178      1.39929      .   S
    C170   O248      1.26633      .   S
    C170   C171      1.51561  1_565   S
    C172   C173      1.39799      .   S
    C172   C171      1.39814      .   S
    C104   C93       1.39468      .   S
    N185   C100      1.34580      .   S
    N185   C101      1.34759      .   S
    C103   C95       1.40428      .   S
    C173   C181      1.40465      .   S
    C179   H74       1.09055      .   S
    C179   N197      1.34765      .   S
    C100   C99       1.39860      .   S
    C171   C182      1.39473      .   S
    H20    C101      1.09054      .   S
    C93    C94       1.44950      .   S
    C93    C92       1.51513      .   S
    C178   N197      1.34581      .   S
    C178   H73       1.08742      .   S
    C101   C97       1.39627      .   S
    C95    C94       1.39781      .   S
    C95    O207      1.36403      .   S
    C181   H75       1.09045      .   S
    C181   N199      1.34256      .   S
    N197   Cd1       2.37540      .   S
    C182   H76       1.08620      .   S
    C182   N199      1.34955      .   S
    O209   C92       1.26633      .   S
    O209   Cd1       2.39850      .   S
    O205   C102      1.26768      .   S
    O205   Cd0       2.42008      .   S
    C94    H15       1.04196  1_455   S
    C92    O206      1.27465  1_455   S
    C99    C102      1.51592  1_565   S
    C99    C98       1.39710      .   S
    O207   C96       1.44412  1_455   S
    H16    C96       1.10245      .   S
    N199   Cd0       2.37742      .   S
    C102   O211      1.27466  1_655   S
    O206   Cd0       2.30763      .   S
    C97    C98       1.39529      .   S
    C97    O208      1.38340      .   S
    O211   Cd1       2.33420      .   S
    C98    H18       1.09008      .   S
    C96    O208      1.40043      .   S
    C96    H17       1.09842      .   S
    H45    C134      1.09478      .   S
    H46    C134      1.09432      .   S
    Cd1    O226      2.38355      .   S
    Cd1    N186      2.40218      .   S
    Cd0    O228      2.35273      .   S
    Cd0    N184      2.42244      .   S
    C134   O229      1.42697      .   S
    C134   O227      1.42641      .   S
    H49    C140      1.08703      .   S
    H47    C135      1.08774      .   S
    O229   C139      1.37361      .   S
    O227   C133      1.37598      .   S
    O226   C142      1.27289      .   S
    H23    C105      1.08605      .   S
    O228   C137      1.27544      .   S
    H14    C91       1.08717      .   S
    O212   H24       1.06657  1_655   S
    O212   H25       1.03906      .   S
    C140   C139      1.39465      .   S
    C140   C141      1.39711      .   S
    N186   C105      1.34809      .   S
    N186   C80       1.34473      .   S
    C135   C133      1.39583      .   S
    C135   C136      1.39611      .   S
    C139   C138      1.40220      .   S
    N184   C91       1.34904      .   S
    N184   C86       1.34438      .   S
    C105   C84       1.39406      .   S
    C133   C132      1.40181      .   S
    C91    C89       1.39591      .   S
    C142   C141      1.51292      .   S
    C142   O230      1.27244      .   S
    C137   C136      1.51378  1_545   S
    C137   O236      1.26943      .   S
    H8     C80       1.09083      .   S
    C141   C143      1.39595      .   S
    H12    C86       1.09098      .   S
    O210   C85       1.26938      .   S
    C80    C81       1.40179      .   S
    C136   C157      1.39410      .   S
    C86    C87       1.40210      .   S
    O204   C90       1.27236      .   S
    C138   H48       1.09097      .   S
    C138   N192      1.34430      .   S
    C84    C85       1.51378  1_545   S
    C84    C83       1.39612      .   S
    C132   H44       1.09081      .   S
    C132   N194      1.34467      .   S
    C89    C90       1.51292      .   S
    C89    C88       1.39718      .   S
    H61    O238      1.03906      .   S
    C85    O202      1.27545      .   S
    H60    O238      1.02888  1_655   S
    C90    O200      1.27291      .   S
    C143   N192      1.34902      .   S
    C143   H50       1.08716      .   S
    C81    C83       1.39582      .   S
    C81    O201      1.37596      .   S
    C157   N194      1.34809      .   S
    C157   H59       1.08544      .   S
    N192   Cd4       2.42221      .   S
    C87    C88       1.39468      .   S
    C87    O203      1.37368      .   S
    C83    H11       1.08710      .   S
    N194   Cd5       2.40218      .   S
    C88    H13       1.08690      .   S
    O202   Cd4       2.35259      .   S
    O200   Cd5       2.38351      .   S
    O201   C82       1.42645      .   S
    O203   C82       1.42695      .   S
    C82    H10       1.09424      .   S
    C82    H9        1.09478      .   S
    H53    C148      1.09854      .   S
    H54    C150      1.09058      .   S
    Cd4    O232      2.30721      .   S
    Cd4    N191      2.37759      .   S
    Cd4    O231      2.42022      .   S
    Cd5    O237      2.33424      .   S
    Cd5    O235      2.39848      .   S
    Cd5    N189      2.37542      .   S
    O234   C148      1.40014      .   S
    O234   C149      1.38349      .   S
    C148   H52       1.10310      .   S
    C148   O233      1.44464  1_455   S
    C150   C149      1.39537      .   S
    C150   C151      1.39740      .   S
    O237   C154      1.27461  1_655   S
    C149   C153      1.39635      .   S
    H51    C146      1.08747  1_455   S
    O232   C144      1.27509  1_455   S
    H37    C126      1.08742      .   S
    C154   C151      1.51592  1_565   S
    C154   O231      1.26768      .   S
    N191   C130      1.34956      .   S
    N191   C129      1.34258      .   S
    H40    C130      1.08621      .   S
    H39    C129      1.09048      .   S
    O233   C147      1.36384      .   S
    C151   C152      1.39862      .   S
    C144   O235      1.26633      .   S
    C144   C145      1.51514      .   S
    C146   C147      1.39797      .   S
    C146   C145      1.39849      .   S
    C130   C119      1.39470      .   S
    N189   C126      1.34582      .   S
    N189   C127      1.34756      .   S
    C129   C121      1.40463      .   S
    C147   C155      1.40459      .   S
    C153   H56       1.09053      .   S
    C153   N193      1.34760      .   S
    C126   C125      1.39861      .   S
    C145   C156      1.39408      .   S
    H38    C127      1.09053      .   S
    C119   C120      1.39795      .   S
    C119   C118      1.51562  1_565   S
    C152   N193      1.34581      .   S
    C152   H55       1.08738      .   S
    C127   C123      1.39544      .   S
    C121   C120      1.39782      .   S
    C121   O220      1.36387      .   S
    C155   H57       1.09047      .   S
    C155   N195      1.34259      .   S
    N193   Cd3       2.37535      .   S
    C156   H58       1.08656      .   S
    C156   N195      1.34987      .   S
    O222   C118      1.26635      .   S
    O222   Cd3       2.39871      .   S
    C120   H33       1.08773      .   S
    C118   O219      1.27425      .   S
    C125   C128      1.51545      .   S
    C125   C124      1.39705      .   S
    O220   C122      1.44431      .   S
    H34    C122      1.10304      .   S
    N195   Cd2       2.37758      .   S
    C128   O224      1.27428      .   S
    O219   Cd2       2.30765      .   S
    C123   C124      1.39547      .   S
    C123   O221      1.38425      .   S
    O224   Cd3       2.33419      .   S
    C124   H36       1.09008      .   S
    C122   O221      1.40007      .   S
    C122   H35       1.09770      .   S
    H63    C160      1.09471      .   S
    H64    C160      1.09442  1_455   S
    Cd3    O239      2.38346      .   S
    Cd3    N190      2.40224      .   S
    Cd2    O241      2.35254      .   S
    Cd2    N188      2.42205      .   S
    C160   O242      1.42728  1_655   S
    C160   O240      1.42641      .   S
    H67    C166      1.08697      .   S
    H65    C161      1.08767      .   S
    O242   C165      1.37362      .   S
    O240   C159      1.37601      .   S
    O239   C168      1.27295      .   S
    H41    C131      1.08512      .   S
    O241   C163      1.27517      .   S
    H32    C117      1.08721      .   S
    O225   H42       1.02880      .   S
    O225   H43       1.03900      .   S
    C166   C165      1.39466      .   S
    C166   C167      1.39714      .   S
    N190   C131      1.34800      .   S
    N190   C106      1.34464      .   S
    C161   C159      1.39582      .   S
    C161   C162      1.39609      .   S
    N188   C117      1.34904      .   S
    N188   C112      1.34434      .   S
    C168   C167      1.51333  1_545   S
    C163   C162      1.51335      .   S
    H26    C106      1.09080      .   S
    H30    C112      1.09098      .   S
    O212   Cd0       2.34615      .   S
    O212   Cd1       2.32946  1_655   S
    O225   Cd2       2.34593      .   S
    O225   Cd3       2.32905      .   S
    O238   Cd4       2.34600      .   S
    O238   Cd5       2.32942  1_455   S
    O251   Cd6       2.34588      .   S
    O251   Cd7       2.32900      .   S
