# CIF file generated by openbabel 2.4.90, see http://openbabel.sf.net
data_I
_chemical_name_common ''
_cell_length_a 13.701
_cell_length_b 13.846
_cell_length_c 14.057
_cell_angle_alpha 108.95
_cell_angle_beta 90.087
_cell_angle_gamma 89.967
_space_group_name_H-M_alt 'P 1'
_space_group_name_Hall 'P 1'
loop_
    _symmetry_equiv_pos_as_xyz
    x,y,z
loop_
    _atom_site_label
    _atom_site_type_symbol
    _atom_site_fract_x
    _atom_site_fract_y
    _atom_site_fract_z
    _atom_site_occupancy
    N0      N    0.30739   0.14378   0.20033   1.000
    N1      N    0.80705   0.86033   0.30023   1.000
    N2      N    0.69268   0.85931   0.80039   1.000
    N3      N    0.19310   0.14305   0.70040   1.000
    Zr4     Zr   0.50005   0.50172   0.00014   1.000
    O5      O    0.42976   0.70261   0.06750   1.000
    O6      O    0.57029   0.30072   0.93294   1.000
    Zr7     Zr   0.00009   0.50179   0.50009   1.000
    O8      O    0.07057   0.70238   0.56767   1.000
    O9      O    0.92963   0.30114   0.43269   1.000
    O10     O    0.59132   0.59774   0.08718   1.000
    O11     O    0.55668   0.59819   0.93767   1.000
    O12     O    0.44355   0.40497   0.06267   1.000
    O13     O    0.40876   0.40574   0.91321   1.000
    O14     O    0.94354   0.59871   0.43764   1.000
    O15     O    0.90870   0.59751   0.58713   1.000
    O16     O    0.09146   0.40599   0.41317   1.000
    O17     O    0.05662   0.40473   0.56261   1.000
loop_
    _geom_bond_atom_site_label_1
    _geom_bond_atom_site_label_2
    _geom_bond_distance
    _geom_bond_site_symmetry_2
    _ccdc_geom_bond_type
    Zr4    O5        2.80171      .   S
    N0     O5        6.01664  1_545   S
    Zr4    O6        2.80288  1_554   S
    N2     O6        6.01988  1_565   S
    Zr7    O8        2.79913      .   S
    N3     O8        6.01135  1_545   S
    Zr7    O9        2.79986  1_455   S
    N1     O9        6.01330  1_565   S
    Zr4    O10       1.94144      .   S
    N1     O10       4.88244      .   S
    Zr4    O11       1.98049  1_554   S
    N2     O11       4.98174      .   S
    Zr4    O12       1.98350      .   S
    N0     O12       4.98673      .   S
    Zr4    O13       1.94074  1_554   S
    N3     O13       4.88128      .   S
    N1     O14       4.98748      .   S
    Zr7    O14       1.98332  1_455   S
    N2     O15       4.88295      .   S
    Zr7    O15       1.94184  1_455   S
    Zr7    O16       1.94163      .   S
    N0     O16       4.88312      .   S
    Zr7    O17       1.98560      .   S
    N3     O17       4.99148      .   S
