# CIF file generated by openbabel 2.4.90, see http://openbabel.sf.net
data_I
_chemical_name_common ''
_cell_length_a 13.701
_cell_length_b 13.846
_cell_length_c 14.057
_cell_angle_alpha 108.95
_cell_angle_beta 90.087
_cell_angle_gamma 89.967
_space_group_name_H-M_alt 'P 1'
_space_group_name_Hall 'P 1'
loop_
    _symmetry_equiv_pos_as_xyz
    x,y,z
loop_
    _atom_site_label
    _atom_site_type_symbol
    _atom_site_fract_x
    _atom_site_fract_y
    _atom_site_fract_z
    _atom_site_occupancy
    N0      N    0.30739   0.14378   0.20033   1.000
    N1      N    0.80705   0.86033   0.30023   1.000
    N2      N    0.69268   0.85931   0.80039   1.000
    N3      N    0.19310   0.14305   0.70040   1.000
    Zr4     Zr   0.50005   0.50172   0.00014   1.000
    O5      O    0.57835   0.61800   0.09490   1.000
    O6      O    0.54347   0.61826   0.94587   1.000
    O7      O    0.39574   0.42596   0.92100   1.000
    O8      O    0.42976   0.70261   0.06750   1.000
    O9      O    0.43048   0.42513   0.07096   1.000
    O10     O    0.60429   0.57748   0.07945   1.000
    O11     O    0.57029   0.30072   0.93294   1.000
    O12     O    0.56989   0.57813   0.92948   1.000
    O13     O    0.42178   0.38551   0.90541   1.000
    O14     O    0.45662   0.38482   0.05438   1.000
    Zr15    Zr   0.00009   0.50179   0.50009   1.000
    O16     O    0.95664   0.61884   0.44595   1.000
    O17     O    0.92167   0.61775   0.59493   1.000
    O18     O    0.06971   0.42486   0.57092   1.000
    O19     O    0.10445   0.42622   0.42097   1.000
    O20     O    0.07057   0.70238   0.56767   1.000
    O21     O    0.92963   0.30114   0.43269   1.000
    O22     O    0.93043   0.57859   0.42934   1.000
    O23     O    0.89572   0.57726   0.57934   1.000
    O24     O    0.04353   0.38459   0.55430   1.000
    O25     O    0.07848   0.38576   0.40537   1.000
loop_
    _geom_bond_atom_site_label_1
    _geom_bond_atom_site_label_2
    _geom_bond_distance
    _geom_bond_site_symmetry_2
    _ccdc_geom_bond_type
    Zr4    O5        2.03035      .   S
    N1     O5        4.80646      .   S
    Zr4    O6        2.08362  1_554   S
    N2     O6        4.89435      .   S
    Zr4    O7        1.90247  1_554   S
    N3     O7        4.97649      .   S
    Zr4    O8        2.80171      .   S
    N0     O8        6.01664  1_545   S
    Zr4    O9        1.92711      .   S
    N0     O9        5.09363      .   S
    Zr4    O10       1.90280      .   S
    N1     O10       4.97785      .   S
    Zr4    O11       2.80288  1_554   S
    N2     O11       6.01988  1_565   S
    Zr4    O12       1.92565  1_554   S
    N2     O12       5.08780      .   S
    Zr4    O13       2.02933  1_554   S
    N3     O13       4.80552      .   S
    Zr4    O14       2.08797      .   S
    N0     O14       4.89845      .   S
    Zr15   O16       2.08764  1_455   S
    N1     O16       4.89949      .   S
    Zr15   O17       2.03015  1_455   S
    N2     O17       4.80761      .   S
    Zr15   O18       1.92898      .   S
    N3     O18       5.09818      .   S
    Zr15   O19       1.90359      .   S
    N0     O19       4.97803      .   S
    Zr15   O20       2.79913      .   S
    N3     O20       6.01135  1_545   S
    Zr15   O21       2.79986  1_455   S
    N1     O21       6.01330  1_565   S
    Zr15   O22       1.92708  1_455   S
    N1     O22       5.09408      .   S
    Zr15   O23       1.90381  1_455   S
    N2     O23       4.97773      .   S
    Zr15   O24       2.09020      .   S
    N3     O24       4.90336      .   S
    Zr15   O25       2.02994      .   S
    N0     O25       4.80763      .   S
