# CIF file generated by openbabel 2.4.90, see http://openbabel.sf.net
data_I
_chemical_name_common ''
_cell_length_a 13.701
_cell_length_b 13.846
_cell_length_c 14.057
_cell_angle_alpha 108.95
_cell_angle_beta 90.087
_cell_angle_gamma 89.967
_space_group_name_H-M_alt 'P 1'
_space_group_name_Hall 'P 1'
loop_
    _symmetry_equiv_pos_as_xyz
    x,y,z
loop_
    _atom_site_label
    _atom_site_type_symbol
    _atom_site_fract_x
    _atom_site_fract_y
    _atom_site_fract_z
    _atom_site_occupancy
    C0      C    0.55820   0.41204   0.96295   1.000
    C1      C    0.05823   0.59139   0.53748   1.000
    C2      C    0.44189   0.59141   0.03733   1.000
    C3      C    0.94194   0.41220   0.46270   1.000
    C4      C    0.24178   0.68673   0.05042   1.000
    C5      C    0.16873   0.86337   0.11701   1.000
    C6      C    0.45705   0.97426   0.22464   1.000
    C7      C    0.51555   0.79481   0.15892   1.000
    C8      C    0.42131   0.22985   0.11397   1.000
    C9      C    0.27245   0.50962   0.26790   1.000
    C10     C    0.18906   0.23202   0.32236   1.000
    C11     C    0.38821   0.08691   0.15875   1.000
    C12     C    0.74164   0.31765   0.44990   1.000
    C13     C    0.66839   0.14100   0.38450   1.000
    C14     C    0.95593   0.02952   0.27533   1.000
    C15     C    0.01468   0.20903   0.33995   1.000
    C16     C    0.92130   0.77424   0.38711   1.000
    C17     C    0.77257   0.49451   0.23253   1.000
    C18     C    0.68850   0.77236   0.17873   1.000
    C19     C    0.88769   0.91745   0.34261   1.000
    C20     C    0.75802   0.31655   0.95012   1.000
    C21     C    0.83087   0.13973   0.88430   1.000
    C22     C    0.54241   0.02887   0.77714   1.000
    C23     C    0.48410   0.20841   0.84222   1.000
    C24     C    0.57858   0.77239   0.88640   1.000
    C25     C    0.72875   0.49353   0.73230   1.000
    C26     C    0.81082   0.77179   0.67840   1.000
    C27     C    0.61124   0.91583   0.84198   1.000
    C28     C    0.25879   0.68586   0.55068   1.000
    C29     C    0.33206   0.86247   0.61641   1.000
    C30     C    0.04462   0.97375   0.72615   1.000
    C31     C    0.98584   0.79426   0.66110   1.000
    C32     C    0.07895   0.22866   0.61323   1.000
    C33     C    0.22708   0.50881   0.76772   1.000
    C34     C    0.31131   0.23140   0.82230   1.000
    C35     C    0.11230   0.08582   0.65852   1.000
    C36     C    0.28576   0.75322   0.09025   1.000
    C37     C    0.24613   0.85073   0.12614   1.000
    C38     C    0.30726   0.93360   0.17306   1.000
    C39     C    0.40596   0.91401   0.18558   1.000
    C40     C    0.43983   0.81398   0.14951   1.000
    C41     C    0.26365   0.03920   0.20866   1.000
    C42     C    0.30752   0.21836   0.21751   1.000
    C43     C    0.36565   0.26987   0.16777   1.000
    C44     C    0.35232   0.37416   0.18459   1.000
    C45     C    0.28229   0.42820   0.25398   1.000
    C46     C    0.22404   0.37651   0.30327   1.000
    C47     C    0.23552   0.27146   0.28455   1.000
    C48     C    0.41142   0.42491   0.12404   1.000
    C49     C    0.14645   0.43129   0.37630   1.000
    C50     C    0.78536   0.25104   0.40995   1.000
    C51     C    0.74566   0.15353   0.37477   1.000
    C52     C    0.80657   0.07057   0.32769   1.000
    C53     C    0.90511   0.08995   0.31446   1.000
    C54     C    0.93905   0.18997   0.34985   1.000
    C55     C    0.76298   0.96501   0.29240   1.000
    C56     C    0.80716   0.78588   0.28362   1.000
    C57     C    0.86557   0.73428   0.33321   1.000
    C58     C    0.85241   0.62994   0.31606   1.000
    C59     C    0.78230   0.57595   0.24659   1.000
    C60     C    0.72383   0.62770   0.19739   1.000
    C61     C    0.73511   0.73281   0.21642   1.000
    C62     C    0.91172   0.57891   0.37630   1.000
    C63     C    0.64619   0.57279   0.12429   1.000
    C64     C    0.71399   0.25001   0.91058   1.000
    C65     C    0.75349   0.15242   0.87510   1.000
    C66     C    0.69228   0.06957   0.82843   1.000
    C67     C    0.59357   0.08914   0.81596   1.000
    C68     C    0.55982   0.18923   0.85160   1.000
    C69     C    0.73595   0.96404   0.79276   1.000
    C70     C    0.69239   0.78468   0.78319   1.000
    C71     C    0.63446   0.73276   0.83268   1.000
    C72     C    0.64831   0.62852   0.81569   1.000
    C73     C    0.71851   0.57491   0.74632   1.000
    C74     C    0.77641   0.62699   0.69715   1.000
    C75     C    0.76454   0.73202   0.71610   1.000
    C76     C    0.58964   0.57725   0.87602   1.000
    C77     C    0.85388   0.57251   0.62390   1.000
    C78     C    0.21508   0.75242   0.59080   1.000
    C79     C    0.25480   0.84993   0.62619   1.000
    C80     C    0.19389   0.93286   0.67340   1.000
    C81     C    0.09541   0.91338   0.68600   1.000
    C82     C    0.06145   0.81338   0.65117   1.000
    C83     C    0.23730   0.03852   0.70840   1.000
    C84     C    0.19282   0.21750   0.71710   1.000
    C85     C    0.13451   0.26884   0.66724   1.000
    C86     C    0.14754   0.37318   0.68421   1.000
    C87     C    0.21748   0.42737   0.75379   1.000
    C88     C    0.27597   0.37586   0.80322   1.000
    C89     C    0.26473   0.27078   0.78445   1.000
    C90     C    0.08836   0.42396   0.62360   1.000
    C91     C    0.35360   0.43096   0.87627   1.000
    C92     C    0.38119   0.73501   0.10143   1.000
    C93     C    0.32561   0.11301   0.19768   1.000
    C94     C    0.88063   0.26905   0.39801   1.000
    C95     C    0.82501   0.89129   0.30370   1.000
    C96     C    0.61860   0.26823   0.89920   1.000
    C97     C    0.67401   0.89000   0.80326   1.000
    C98     C    0.11981   0.73436   0.60268   1.000
    C99     C    0.17500   0.11211   0.69735   1.000
    C100    C    0.17994   0.05442   0.24261   1.000
    C101    C    0.47978   0.37204   0.07089   1.000
    C102    C    0.38698   0.51522   0.12914   1.000
    C103    C    0.16225   0.52366   0.42930   1.000
    C104    C    0.07072   0.37911   0.37923   1.000
    C105    C    0.67924   0.94969   0.25834   1.000
    C106    C    0.98045   0.63146   0.42930   1.000
    C107    C    0.88703   0.48869   0.37116   1.000
    C108    C    0.66185   0.48028   0.07165   1.000
    C109    C    0.57060   0.62507   0.12088   1.000
    C110    C    0.81975   0.94905   0.75899   1.000
    C111    C    0.52029   0.62915   0.92828   1.000
    C112    C    0.61539   0.48747   0.87153   1.000
    C113    C    0.83815   0.48011   0.57085   1.000
    C114    C    0.92945   0.62485   0.62080   1.000
    C115    C    0.32113   0.05413   0.74220   1.000
    C116    C    0.01979   0.37126   0.57050   1.000
    C117    C    0.11291   0.51422   0.62875   1.000
    C118    C    0.33762   0.52328   0.92931   1.000
    C119    C    0.42963   0.37907   0.87900   1.000
    O120    O    0.41154   0.66321   0.06938   1.000
    O121    O    0.50625   0.60824   0.07911   1.000
    O122    O    0.41444   0.55331   0.08324   1.000
    O123    O    0.48109   0.61028   0.98281   1.000
    O124    O    0.38976   0.55734   0.98332   1.000
    O125    O    0.26377   0.71997   0.07033   1.000
    O126    O    0.44560   0.39848   0.09746   1.000
    O127    O    0.51899   0.39204   0.01692   1.000
    O128    O    0.65402   0.52654   0.09797   1.000
    O129    O    0.61002   0.44616   0.01730   1.000
    O130    O    0.33347   0.74411   0.09584   1.000
    O131    O    0.26595   0.80197   0.10819   1.000
    O132    O    0.41051   0.77450   0.12547   1.000
    O133    O    0.39348   0.24986   0.14087   1.000
    O134    O    0.20743   0.85705   0.12158   1.000
    O135    O    0.60840   0.59893   0.12258   1.000
    O136    O    0.39920   0.47006   0.12659   1.000
    O137    O    0.38187   0.39954   0.15431   1.000
    O138    O    0.68501   0.60025   0.16084   1.000
    O139    O    0.27670   0.89217   0.14960   1.000
    O140    O    0.47769   0.80440   0.15422   1.000
    O141    O    0.42290   0.86400   0.16754   1.000
    O142    O    0.35691   0.09996   0.17822   1.000
    O143    O    0.35898   0.32202   0.17618   1.000
    O144    O    0.33658   0.24412   0.19264   1.000
    O145    O    0.35661   0.92381   0.17932   1.000
    O146    O    0.28546   0.98640   0.19086   1.000
    O147    O    0.71180   0.75258   0.19758   1.000
    O148    O    0.31731   0.40118   0.21928   1.000
    O149    O    0.43150   0.94414   0.20511   1.000
    O150    O    0.72947   0.68025   0.20690   1.000
    O151    O    0.75306   0.60183   0.22199   1.000
    O152    O    0.29463   0.07610   0.20317   1.000
    O153    O    0.31656   0.16569   0.20760   1.000
    O154    O    0.22179   0.04681   0.22564   1.000
    O155    O    0.77113   0.75934   0.25002   1.000
    O156    O    0.27152   0.24491   0.25103   1.000
    O157    O    0.77743   0.53523   0.23956   1.000
    O158    O    0.81736   0.60294   0.28133   1.000
    O159    O    0.27737   0.46891   0.26094   1.000
    O160    O    0.25317   0.40235   0.27863   1.000
    O161    O    0.72111   0.95735   0.27537   1.000
    O162    O    0.93052   0.05973   0.29490   1.000
    O163    O    0.81608   0.83858   0.29366   1.000
    O164    O    0.83637   0.76008   0.30842   1.000
    O165    O    0.22978   0.32398   0.29391   1.000
    O166    O    0.21229   0.25174   0.30346   1.000
    O167    O    0.79399   0.92815   0.29805   1.000
    O168    O    0.78477   0.01779   0.31004   1.000
    O169    O    0.18524   0.40390   0.33979   1.000
    O170    O    0.85635   0.90437   0.32316   1.000
    O171    O    0.85584   0.08026   0.32108   1.000
    O172    O    0.92208   0.13996   0.33215   1.000
    O173    O    0.85899   0.68211   0.32464   1.000
    O174    O    0.88207   0.60443   0.34618   1.000
    O175    O    0.77611   0.11205   0.35123   1.000
    O176    O    0.89344   0.75426   0.36016   1.000
    O177    O    0.97687   0.19950   0.34490   1.000
    O178    O    0.90984   0.22951   0.37393   1.000
    O179    O    0.89938   0.53380   0.37373   1.000
    O180    O    0.91449   0.45045   0.41693   1.000
    O181    O    0.70702   0.14727   0.37964   1.000
    O182    O    0.76551   0.20228   0.39236   1.000
    O183    O    0.94608   0.60519   0.40280   1.000
    O184    O    0.10859   0.40520   0.37777   1.000
    O185    O    0.15435   0.47747   0.40280   1.000
    O186    O    0.00633   0.39566   0.42097   1.000
    O187    O    0.83300   0.26004   0.40398   1.000
    O188    O    0.91129   0.34062   0.43036   1.000
    O189    O    0.76350   0.28434   0.42993   1.000
    O190    O    0.11024   0.55752   0.48339   1.000
    O191    O    0.01934   0.61142   0.48339   1.000
    O192    O    0.98087   0.39173   0.51660   1.000
    O193    O    0.89004   0.44616   0.51677   1.000
    O194    O    0.08902   0.66287   0.57008   1.000
    O195    O    0.99384   0.60812   0.57914   1.000
    O196    O    0.08557   0.55280   0.58312   1.000
    O197    O    0.23694   0.71914   0.57074   1.000
    O198    O    0.05408   0.39761   0.59705   1.000
    O199    O    0.84602   0.52631   0.59737   1.000
    O200    O    0.16744   0.74339   0.59674   1.000
    O201    O    0.23494   0.80118   0.60850   1.000
    O202    O    0.09063   0.77387   0.62693   1.000
    O203    O    0.10673   0.24875   0.64023   1.000
    O204    O    0.29343   0.85620   0.62130   1.000
    O205    O    0.89167   0.59868   0.62235   1.000
    O206    O    0.10063   0.46909   0.62618   1.000
    O207    O    0.11795   0.39857   0.65390   1.000
    O208    O    0.81515   0.59975   0.66053   1.000
    O209    O    0.22434   0.89139   0.64980   1.000
    O210    O    0.02364   0.80382   0.65614   1.000
    O211    O    0.07843   0.86338   0.66858   1.000
    O212    O    0.14365   0.09896   0.67794   1.000
    O213    O    0.14102   0.32101   0.67573   1.000
    O214    O    0.16366   0.24317   0.69217   1.000
    O215    O    0.14465   0.92312   0.67970   1.000
    O216    O    0.21560   0.98569   0.69090   1.000
    O217    O    0.78768   0.75190   0.69725   1.000
    O218    O    0.18251   0.40027   0.71900   1.000
    O219    O    0.07002   0.94357   0.70608   1.000
    O220    O    0.77048   0.67950   0.70662   1.000
    O221    O    0.74746   0.60095   0.72174   1.000
    O222    O    0.20615   0.07531   0.70288   1.000
    O223    O    0.18391   0.16480   0.70722   1.000
    O224    O    0.27922   0.04633   0.72530   1.000
    O225    O    0.72847   0.75835   0.74965   1.000
    O226    O    0.22877   0.24414   0.75077   1.000
    O227    O    0.72363   0.53422   0.73931   1.000
    O228    O    0.68341   0.60172   0.78101   1.000
    O229    O    0.22228   0.46809   0.76075   1.000
    O230    O    0.24673   0.40161   0.77851   1.000
    O231    O    0.77785   0.95654   0.77587   1.000
    O232    O    0.56799   0.05900   0.79655   1.000
    O233    O    0.68320   0.83734   0.79322   1.000
    O234    O    0.66342   0.75872   0.80794   1.000
    O235    O    0.27035   0.32332   0.79383   1.000
    O236    O    0.28802   0.25109   0.80337   1.000
    O237    O    0.70498   0.92702   0.79801   1.000
    O238    O    0.71411   0.01680   0.81059   1.000
    O239    O    0.31479   0.40341   0.83975   1.000
    O240    O    0.64262   0.90292   0.82262   1.000
    O241    O    0.64138   0.68064   0.82419   1.000
    O242    O    0.61897   0.60289   0.84586   1.000
    O243    O    0.64292   0.07935   0.82220   1.000
    O244    O    0.57669   0.13919   0.83378   1.000
    O245    O    0.72288   0.11100   0.85176   1.000
    O246    O    0.60652   0.75258   0.85954   1.000
    O247    O    0.52196   0.19882   0.84691   1.000
    O248    O    0.58921   0.22873   0.87540   1.000
    O249    O    0.60252   0.53236   0.87377   1.000
    O250    O    0.58679   0.44976   0.91724   1.000
    O251    O    0.79218   0.14607   0.87970   1.000
    O252    O    0.73374   0.20121   0.89284   1.000
    O253    O    0.55497   0.60320   0.90215   1.000
    O254    O    0.39161   0.40502   0.87764   1.000
    O255    O    0.34561   0.47712   0.90279   1.000
    O256    O    0.49391   0.39556   0.92098   1.000
    O257    O    0.66629   0.25912   0.90489   1.000
    O258    O    0.58840   0.34014   0.93107   1.000
    O259    O    0.73600   0.28328   0.93035   1.000
    O260    O    0.50005   0.50172   0.00014   1.000
    O261    O    0.00009   0.50179   0.50009   1.000
loop_
    _geom_bond_atom_site_label_1
    _geom_bond_atom_site_label_2
    _geom_bond_distance
    _geom_bond_site_symmetry_2
    _ccdc_geom_bond_type
    C2     O120      1.03606      .   S
    C92    O120      1.03606      .   S
    C2     O121      1.04225      .   S
    C109   O121      1.04225      .   S
    C2     O122      1.02866      .   S
    C102   O122      1.02866      .   S
    C2     O123      1.03713  1_554   S
    C111   O123      1.03713      .   S
    C2     O124      1.03696  1_554   S
    C118   O124      1.03696      .   S
    C4     O125      0.54516      .   S
    C36    O125      0.54516      .   S
    C101   O126      0.63590      .   S
    C48    O126      0.63590      .   S
    C101   O127      1.03856      .   S
    C0     O127      1.03856  1_556   S
    C108   O128      0.63618      .   S
    C63    O128      0.63618      .   S
    C108   O129      1.03702      .   S
    C0     O129      1.03702  1_556   S
    C36    O130      0.67504      .   S
    C92    O130      0.67504      .   S
    C36    O131      0.69460      .   S
    C37    O131      0.69460      .   S
    C92    O132      0.67407      .   S
    C40    O132      0.67407      .   S
    C8     O133      0.54537      .   S
    C43    O133      0.54537      .   S
    C5     O134      0.54446      .   S
    C37    O134      0.54446      .   S
    C109   O135      0.63652      .   S
    C63    O135      0.63652      .   S
    C48    O136      0.63684      .   S
    C102   O136      0.63684      .   S
    C48    O137      0.75249      .   S
    C44    O137      0.75249      .   S
    C63    O138      0.75090      .   S
    C60    O138      0.75090      .   S
    C37    O139      0.70014      .   S
    C38    O139      0.70014      .   S
    C40    O140      0.54459      .   S
    C7     O140      0.54459      .   S
    C40    O141      0.69545      .   S
    C39    O141      0.69545      .   S
    C11    O142      0.50949      .   S
    C93    O142      0.50949      .   S
    C43    O143      0.69866      .   S
    C44    O143      0.69866      .   S
    C43    O144      0.69963      .   S
    C42    O144      0.69963      .   S
    C38    O145      0.70058      .   S
    C39    O145      0.70058      .   S
    C38    O146      0.75329      .   S
    C41    O146      0.75329  1_545   S
    C18    O147      0.54207      .   S
    C61    O147      0.54207      .   S
    C44    O148      0.69998      .   S
    C45    O148      0.69998      .   S
    C39    O149      0.54527      .   S
    C6     O149      0.54527      .   S
    C60    O150      0.70014      .   S
    C61    O150      0.70014      .   S
    C60    O151      0.69873      .   S
    C59    O151      0.69873      .   S
    C93    O152      0.68786      .   S
    C41    O152      0.68786      .   S
    C93    O153      0.70760      .   S
    C42    O153      0.70760      .   S
    C41    O154      0.61722      .   S
    C100   O154      0.61722      .   S
    C61    O155      0.69893      .   S
    C56    O155      0.69893      .   S
    C42    O156      0.69887      .   S
    C47    O156      0.69887      .   S
    C17    O157      0.54402      .   S
    C59    O157      0.54402      .   S
    C59    O158      0.69982      .   S
    C58    O158      0.69982      .   S
    C45    O159      0.54406      .   S
    C9     O159      0.54406      .   S
    C45    O160      0.69889      .   S
    C46    O160      0.69889      .   S
    C105   O161      0.61707      .   S
    C55    O161      0.61707      .   S
    C14    O162      0.54524      .   S
    C53    O162      0.54524      .   S
    C56    O163      0.70753      .   S
    C95    O163      0.70753      .   S
    C56    O164      0.69959      .   S
    C57    O164      0.69959      .   S
    C47    O165      0.70016      .   S
    C46    O165      0.70016      .   S
    C47    O166      0.54212      .   S
    C10    O166      0.54212      .   S
    C55    O167      0.68797      .   S
    C95    O167      0.68797      .   S
    C55    O168      0.75306  1_565   S
    C52    O168      0.75306      .   S
    C46    O169      0.75098      .   S
    C49    O169      0.75098      .   S
    C95    O170      0.50949      .   S
    C19    O170      0.50949      .   S
    C53    O171      0.70053      .   S
    C52    O171      0.70053      .   S
    C53    O172      0.69539      .   S
    C54    O172      0.69539      .   S
    C58    O173      0.69857      .   S
    C57    O173      0.69857      .   S
    C58    O174      0.75202      .   S
    C62    O174      0.75202      .   S
    C52    O175      0.70011      .   S
    C51    O175      0.70011      .   S
    C57    O176      0.54536      .   S
    C16    O176      0.54536      .   S
    C15    O177      0.54480  1_455   S
    C54    O177      0.54480      .   S
    C54    O178      0.67397      .   S
    C94    O178      0.67397      .   S
    C107   O179      0.63678      .   S
    C62    O179      0.63678      .   S
    C107   O180      1.02770      .   S
    C3     O180      1.02770      .   S
    C51    O181      0.54443      .   S
    C13    O181      0.54443      .   S
    C51    O182      0.69455      .   S
    C50    O182      0.69455      .   S
    C62    O183      0.63595      .   S
    C106   O183      0.63595      .   S
    C49    O184      0.63647      .   S
    C104   O184      0.63647      .   S
    C49    O185      0.63611      .   S
    C103   O185      0.63611      .   S
    C104   O186      1.04358      .   S
    C3     O186      1.04358  1_655   S
    C94    O187      0.67497      .   S
    C50    O187      0.67497      .   S
    C94    O188      1.03564      .   S
    C3     O188      1.03564      .   S
    C50    O189      0.54517      .   S
    C12    O189      0.54517      .   S
    C103   O190      1.03702      .   S
    C1     O190      1.03702      .   S
    C106   O191      1.03664  1_655   S
    C1     O191      1.03664      .   S
    C3     O192      1.03774      .   S
    C116   O192      1.03774  1_455   S
    C3     O193      1.03611      .   S
    C113   O193      1.03611      .   S
    C1     O194      1.03585      .   S
    C98    O194      1.03585      .   S
    C1     O195      1.04313  1_455   S
    C114   O195      1.04313      .   S
    C1     O196      1.02899      .   S
    C117   O196      1.02899      .   S
    C28    O197      0.54518      .   S
    C78    O197      0.54518      .   S
    C116   O198      0.63582      .   S
    C90    O198      0.63582      .   S
    C113   O199      0.63626      .   S
    C77    O199      0.63626      .   S
    C78    O200      0.67502      .   S
    C98    O200      0.67502      .   S
    C78    O201      0.69464      .   S
    C79    O201      0.69464      .   S
    C98    O202      0.67401      .   S
    C82    O202      0.67401      .   S
    C32    O203      0.54537      .   S
    C85    O203      0.54537      .   S
    C29    O204      0.54448      .   S
    C79    O204      0.54448      .   S
    C114   O205      0.63653      .   S
    C77    O205      0.63653      .   S
    C90    O206      0.63672      .   S
    C117   O206      0.63672      .   S
    C90    O207      0.75232      .   S
    C86    O207      0.75232      .   S
    C77    O208      0.75066      .   S
    C74    O208      0.75066      .   S
    C79    O209      0.70014      .   S
    C80    O209      0.70014      .   S
    C82    O210      0.54481      .   S
    C31    O210      0.54481  1_655   S
    C82    O211      0.69519      .   S
    C81    O211      0.69519      .   S
    C35    O212      0.50948      .   S
    C99    O212      0.50948      .   S
    C85    O213      0.69860      .   S
    C86    O213      0.69860      .   S
    C85    O214      0.69930      .   S
    C84    O214      0.69930      .   S
    C80    O215      0.69946      .   S
    C81    O215      0.69946      .   S
    C80    O216      0.75314      .   S
    C83    O216      0.75314  1_545   S
    C26    O217      0.54247      .   S
    C75    O217      0.54247      .   S
    C86    O218      0.69989      .   S
    C87    O218      0.69989      .   S
    C81    O219      0.54671      .   S
    C30    O219      0.54671      .   S
    C74    O220      0.70008      .   S
    C75    O220      0.70008      .   S
    C74    O221      0.69872      .   S
    C73    O221      0.69872      .   S
    C99    O222      0.68777      .   S
    C83    O222      0.68777      .   S
    C99    O223      0.70768      .   S
    C84    O223      0.70768      .   S
    C83    O224      0.61716      .   S
    C115   O224      0.61716      .   S
    C75    O225      0.69889      .   S
    C70    O225      0.69889      .   S
    C84    O226      0.69923      .   S
    C89    O226      0.69923      .   S
    C25    O227      0.54404      .   S
    C73    O227      0.54404      .   S
    C73    O228      0.69983      .   S
    C72    O228      0.69983      .   S
    C87    O229      0.54401      .   S
    C33    O229      0.54401      .   S
    C87    O230      0.69878      .   S
    C88    O230      0.69878      .   S
    C110   O231      0.61725      .   S
    C69    O231      0.61725      .   S
    C22    O232      0.54526      .   S
    C67    O232      0.54526      .   S
    C70    O233      0.70752      .   S
    C97    O233      0.70752      .   S
    C70    O234      0.69960      .   S
    C71    O234      0.69960      .   S
    C89    O235      0.70017      .   S
    C88    O235      0.70017      .   S
    C89    O236      0.54189      .   S
    C34    O236      0.54189      .   S
    C69    O237      0.68783      .   S
    C97    O237      0.68783      .   S
    C69    O238      0.75307  1_565   S
    C66    O238      0.75307      .   S
    C88    O239      0.75106      .   S
    C91    O239      0.75106      .   S
    C97    O240      0.50947      .   S
    C27    O240      0.50947      .   S
    C72    O241      0.69861      .   S
    C71    O241      0.69861      .   S
    C72    O242      0.75213      .   S
    C76    O242      0.75213      .   S
    C67    O243      0.70056      .   S
    C66    O243      0.70056      .   S
    C67    O244      0.69542      .   S
    C68    O244      0.69542      .   S
    C66    O245      0.70006      .   S
    C65    O245      0.70006      .   S
    C71    O246      0.54536      .   S
    C24    O246      0.54536      .   S
    C23    O247      0.54452      .   S
    C68    O247      0.54452      .   S
    C68    O248      0.67395      .   S
    C96    O248      0.67395      .   S
    C112   O249      0.63684      .   S
    C76    O249      0.63684      .   S
    C112   O250      1.02861      .   S
    C0     O250      1.02861      .   S
    C65    O251      0.54449      .   S
    C21    O251      0.54449      .   S
    C65    O252      0.69453      .   S
    C64    O252      0.69453      .   S
    C76    O253      0.63591      .   S
    C111   O253      0.63591      .   S
    C91    O254      0.63635      .   S
    C119   O254      0.63635      .   S
    C91    O255      0.63616      .   S
    C118   O255      0.63616      .   S
    C119   O256      1.04265      .   S
    C0     O256      1.04265      .   S
    C96    O257      0.67501      .   S
    C64    O257      0.67501      .   S
    C96    O258      1.03609      .   S
    C0     O258      1.03609      .   S
    C64    O259      0.54515      .   S
    C20    O259      0.54515      .   S
    C0     O260      1.42427  1_556   S
    C2     O260      1.42427      .   S
    C1     O261      1.42343      .   S
    C3     O261      1.42343  1_655   S
