# CIF file generated by openbabel 2.4.90, see http://openbabel.sf.net
data_I
_chemical_name_common ''
_cell_length_a 5.7155
_cell_length_b 10.6165
_cell_length_c 16.195
_cell_angle_alpha 90.001
_cell_angle_beta 90.007
_cell_angle_gamma 92.9
_space_group_name_H-M_alt 'P 1'
_space_group_name_Hall 'P 1'
loop_
    _symmetry_equiv_pos_as_xyz
    x,y,z
loop_
    _atom_site_label
    _atom_site_type_symbol
    _atom_site_fract_x
    _atom_site_fract_y
    _atom_site_fract_z
    _atom_site_occupancy
    Cu0     Cu   0.24806   0.00372   0.93049   1.000
    Cu1     Cu   0.24791   0.50397   0.56947   1.000
    Cu2     Cu   0.75151   0.99535   0.06951   1.000
    Cu3     Cu   0.75156   0.49518   0.43051   1.000
