# CIF file generated by openbabel 2.4.90, see http://openbabel.sf.net
data_I
_chemical_name_common ''
_cell_length_a 18.425
_cell_length_b 18.432
_cell_length_c 18.433
_cell_angle_alpha 60.135
_cell_angle_beta 60.158
_cell_angle_gamma 60.157
_space_group_name_H-M_alt 'P 1'
_space_group_name_Hall 'P 1'
loop_
    _symmetry_equiv_pos_as_xyz
    x,y,z
loop_
    _atom_site_label
    _atom_site_type_symbol
    _atom_site_fract_x
    _atom_site_fract_y
    _atom_site_fract_z
    _atom_site_occupancy
    Zr0     Zr   0.20660   0.38050   0.20674   1.000
    Zr1     Zr   0.38046   0.20664   0.20662   1.000
    Zr2     Zr   0.20643   0.20634   0.20633   1.000
    Zr3     Zr   0.20660   0.20675   0.38048   1.000
    Zr4     Zr   0.61956   0.79337   0.79335   1.000
    Zr5     Zr   0.79342   0.61951   0.79323   1.000
    Zr6     Zr   0.79360   0.79367   0.79364   1.000
    Zr7     Zr   0.79342   0.79326   0.61900   1.000
    N8      N    0.00001   0.50000   0.99998   1.000
    O9      O    0.08487   0.37788   0.08480   1.000
    O10     O    0.91515   0.62213   0.91517   1.000
    O11     O    0.08495   0.45228   0.08497   1.000
    O12     O    0.91507   0.54773   0.91499   1.000
    N13     N    0.50001   0.00000   0.99999   1.000
    O14     O    0.62212   0.91519   0.91516   1.000
    O15     O    0.45228   0.08495   0.08494   1.000
    O16     O    0.54774   0.91506   0.91504   1.000
    O17     O    0.37790   0.08482   0.08481   1.000
    N18     N    0.00001   0.00000   0.49996   1.000
    O19     O    0.08496   0.08499   0.45225   1.000
    O20     O    0.91506   0.91502   0.54748   1.000
    O21     O    0.91516   0.91519   0.62210   1.000
    O22     O    0.08486   0.08482   0.37785   1.000
    N23     N    0.50001   0.00000   0.49997   1.000
    O24     O    0.54775   0.91502   0.62199   1.000
    O25     O    0.37796   0.08501   0.45228   1.000
    O26     O    0.62206   0.91500   0.54755   1.000
    O27     O    0.45227   0.08499   0.37797   1.000
    N28     N    0.50001   0.50000   0.99995   1.000
    O29     O    0.45227   0.37800   0.08488   1.000
    O30     O    0.54775   0.62201   0.91496   1.000
    O31     O    0.62206   0.54770   0.91496   1.000
    O32     O    0.37796   0.45231   0.08498   1.000
    N33     N    0.24997   0.25003   0.25001   1.000
    O34     O    0.23913   0.28264   0.23919   1.000
    O35     O    0.28259   0.23918   0.23916   1.000
    O36     O    0.23909   0.23910   0.23909   1.000
    O37     O    0.23913   0.23921   0.28263   1.000
    N38     N    0.00001   0.50000   0.49999   1.000
    O39     O    0.91505   0.62199   0.54756   1.000
    O40     O    0.08497   0.45231   0.37801   1.000
    O41     O    0.91504   0.54770   0.62197   1.000
    O42     O    0.08497   0.37802   0.45229   1.000
    N43     N    0.75005   0.74998   0.74996   1.000
    O44     O    0.71742   0.76083   0.76081   1.000
    O45     O    0.76093   0.76090   0.76088   1.000
    O46     O    0.76089   0.71736   0.76078   1.000
    O47     O    0.76089   0.76080   0.71722   1.000
loop_
    _geom_bond_atom_site_label_1
    _geom_bond_atom_site_label_2
    _geom_bond_distance
    _geom_bond_site_symmetry_2
    _ccdc_geom_bond_type
    N8     O9        2.31972  1_556   S
    Zr2    O9        3.30499      .   S
    N8     O10       2.31967  1_455   S
    Zr6    O10       3.30496      .   S
    N8     O11       2.31841  1_556   S
    Zr0    O11       3.30307      .   S
    N8     O12       2.31838  1_455   S
    Zr5    O12       3.30300      .   S
    N13    O14       2.32020  1_545   S
    Zr6    O14       3.30563      .   S
    N13    O15       2.31896  1_556   S
    Zr1    O15       3.30383      .   S
    N13    O16       2.31898  1_545   S
    Zr4    O16       3.30387      .   S
    N13    O17       2.32019  1_556   S
    Zr2    O17       3.30560      .   S
    N18    O19       2.31832      .   S
    Zr3    O19       3.30299      .   S
    N18    O20       2.31938  1_445   S
    Zr7    O20       3.30424      .   S
    N18    O21       2.31971  1_445   S
    Zr6    O21       3.30501      .   S
    N18    O22       2.31958      .   S
    Zr2    O22       3.30489      .   S
    N23    O24       2.31833  1_545   S
    Zr4    O24       3.30283      .   S
    N23    O25       2.31806      .   S
    Zr3    O25       3.30238      .   S
    N23    O26       2.31698  1_545   S
    Zr7    O26       3.29885      .   S
    N23    O27       2.31816      .   S
    Zr1    O27       3.30267      .   S
    N28    O29       2.31818  1_556   S
    Zr1    O29       3.30270      .   S
    N28    O30       2.31818      .   S
    Zr4    O30       3.30269      .   S
    N28    O31       2.31810      .   S
    Zr5    O31       3.30247      .   S
    N28    O32       2.31811  1_556   S
    Zr0    O32       3.30247      .   S
    N33    O34       0.49178      .   S
    Zr0    O34       1.47533      .   S
    N33    O35       0.49176      .   S
    Zr1    O35       1.47529      .   S
    N33    O36       0.49194      .   S
    Zr2    O36       1.47583      .   S
    N33    O37       0.49180      .   S
    Zr3    O37       1.47540      .   S
    N38    O39       2.31715  1_455   S
    Zr7    O39       3.29912      .   S
    N38    O40       2.31839      .   S
    Zr0    O40       3.30284      .   S
    N38    O41       2.31838  1_455   S
    Zr5    O41       3.30284      .   S
    N38    O42       2.31834      .   S
    Zr3    O42       3.30277      .   S
    N43    O44       0.49176      .   S
    Zr4    O44       1.47529      .   S
    N43    O45       0.49195      .   S
    Zr6    O45       1.47585      .   S
    N43    O46       0.49178      .   S
    Zr5    O46       1.47533      .   S
    N43    O47       0.49365      .   S
    Zr7    O47       1.48095      .   S
