# CIF file generated by openbabel 2.4.90, see http://openbabel.sf.net
data_I
_chemical_name_common ''
_cell_length_a 9.8895
_cell_length_b 14.0466
_cell_length_c 14.0477
_cell_angle_alpha 82.8964
_cell_angle_beta 69.3924
_cell_angle_gamma 69.4098
_space_group_name_H-M_alt 'P 1'
_space_group_name_Hall 'P 1'
loop_
    _symmetry_equiv_pos_as_xyz
    x,y,z
loop_
    _atom_site_label
    _atom_site_type_symbol
    _atom_site_fract_x
    _atom_site_fract_y
    _atom_site_fract_z
    _atom_site_occupancy
    Zr0     Zr   0.46481   0.84484   0.58873   1.000
    Zr1     Zr   0.89832   0.15523   0.41124   1.000
    Zr2     Zr   0.69026   0.41125   0.84491   1.000
    Zr3     Zr   0.94641   0.58877   0.15522   1.000
    Zr4     Zr   0.39835   0.41124   0.15522   1.000
    Zr5     Zr   0.96482   0.58874   0.84484   1.000
    Zr6     Zr   0.44636   0.15524   0.58876   1.000
    Zr7     Zr   0.19024   0.84493   0.41123   1.000
    N8      N    0.29421   0.49999   0.91148   1.000
    O9      O    0.18200   0.52968   0.89495   1.000
    O10     O    0.42295   0.47030   0.89497   1.000
    O11     O    0.32593   0.47325   0.99674   1.000
    O12     O    0.17724   0.52661   0.99674   1.000
    N13     N    0.14806   0.71734   0.64130   1.000
    O14     O    0.25937   0.75768   0.62410   1.000
    O15     O    0.09610   0.67250   0.70842   1.000
    O16     O    0.16545   0.76173   0.56713   1.000
    N17     N    0.25018   0.00004   0.99996   1.000
    O18     O    0.33117   0.94256   0.83145   1.000
    O19     O    0.10518   0.05754   0.16848   1.000
    O20     O    0.22652   0.94259   0.16847   1.000
    O21     O    0.33767   0.05751   0.83146   1.000
    N22     N    0.79417   0.91148   0.50001   1.000
    O23     O    0.68197   0.89495   0.52969   1.000
    O24     O    0.67720   0.99674   0.52662   1.000
    O25     O    0.82590   0.99675   0.47327   1.000
    O26     O    0.92292   0.89498   0.47031   1.000
    N27     N    0.63444   0.71740   0.35869   1.000
    O28     O    0.48280   0.75777   0.37588   1.000
    O29     O    0.57270   0.76175   0.43286   1.000
    O30     O    0.73125   0.67258   0.29157   1.000
    N31     N    0.70556   0.50012   0.08864   1.000
    O32     O    0.70058   0.47336   0.00338   1.000
    O33     O    0.78811   0.52981   0.10515   1.000
    O34     O    0.79593   0.52673   0.00336   1.000
    O35     O    0.60655   0.47037   0.10514   1.000
    N36     N    0.21031   0.64136   0.28278   1.000
    O37     O    0.11627   0.62418   0.24240   1.000
    O38     O    0.19522   0.70850   0.32755   1.000
    O39     O    0.26710   0.56717   0.23841   1.000
    N40     N    0.71033   0.28279   0.64135   1.000
    O41     O    0.76711   0.23842   0.56716   1.000
    O42     O    0.69525   0.32757   0.70850   1.000
    O43     O    0.61627   0.24242   0.62417   1.000
    N44     N    0.75034   0.99996   0.00003   1.000
    O45     O    0.72665   0.16849   0.94257   1.000
    O46     O    0.60532   0.16849   0.05753   1.000
    O47     O    0.83778   0.83147   0.05749   1.000
    O48     O    0.83128   0.83146   0.94255   1.000
    N49     N    0.50678   0.28281   0.35874   1.000
    O50     O    0.49436   0.23845   0.43291   1.000
    O51     O    0.64122   0.24242   0.37589   1.000
    O52     O    0.47709   0.32757   0.29161   1.000
    N53     N    0.20556   0.08864   0.50010   1.000
    O54     O    0.28809   0.10516   0.52979   1.000
    O55     O    0.10655   0.10514   0.47036   1.000
    O56     O    0.29593   0.00336   0.52671   1.000
    O57     O    0.20059   0.00338   0.47333   1.000
    N58     N    0.13444   0.35871   0.71741   1.000
    O59     O    0.98280   0.37590   0.75776   1.000
    O60     O    0.23124   0.29159   0.67258   1.000
    O61     O    0.07270   0.43287   0.76175   1.000
    N62     N    0.64806   0.64131   0.71734   1.000
    O63     O    0.75937   0.62411   0.75768   1.000
    O64     O    0.66544   0.56715   0.76173   1.000
    O65     O    0.59610   0.70843   0.67250   1.000
    N66     N    0.00682   0.35873   0.28279   1.000
    O67     O    0.99441   0.43290   0.23843   1.000
    O68     O    0.14127   0.37588   0.24239   1.000
    O69     O    0.97711   0.29159   0.32755   1.000
loop_
    _geom_bond_atom_site_label_1
    _geom_bond_atom_site_label_2
    _geom_bond_distance
    _geom_bond_site_symmetry_2
    _ccdc_geom_bond_type
    N8     O9        1.13623      .   S
    Zr5    O9        2.33742  1_655   S
    N8     O10       1.13634      .   S
    Zr2    O10       2.33759      .   S
    N8     O11       1.32082      .   S
    Zr4    O11       2.53608  1_554   S
    N8     O12       1.32050      .   S
    Zr3    O12       2.53603  1_654   S
    N13    O14       1.34504      .   S
    Zr0    O14       2.60035      .   S
    N13    O15       1.13551      .   S
    Zr5    O15       2.34690  1_655   S
    N13    O16       1.13687      .   S
    Zr7    O16       2.32655      .   S
    N17    O18       2.36217  1_545   S
    Zr0    O18       3.45919      .   S
    N17    O19       2.36260  1_556   S
    Zr1    O19       3.45969  1_655   S
    N17    O20       2.36230  1_546   S
    Zr7    O20       3.45941      .   S
    N17    O21       2.36214      .   S
    Zr6    O21       3.45898      .   S
    N22    O23       1.13602      .   S
    Zr0    O23       2.33684      .   S
    N22    O24       1.32069      .   S
    Zr6    O24       2.53638  1_545   S
    N22    O25       1.32069      .   S
    Zr1    O25       2.53575  1_545   S
    N22    O26       1.13637      .   S
    Zr7    O26       2.33767  1_455   S
    N27    O28       1.34521      .   S
    Zr7    O28       2.60073      .   S
    N27    O29       1.13642      .   S
    Zr0    O29       2.32527      .   S
    N27    O30       1.13559      .   S
    Zr3    O30       2.34714      .   S
    N31    O32       1.32063      .   S
    Zr2    O32       2.53571  1_556   S
    N31    O33       1.13618      .   S
    Zr3    O33       2.33720      .   S
    N31    O34       1.32068      .   S
    Zr5    O34       2.53620  1_556   S
    N31    O35       1.13624      .   S
    Zr4    O35       2.33736      .   S
    N36    O37       1.34458      .   S
    Zr3    O37       2.59918  1_655   S
    N36    O38       1.13538      .   S
    Zr7    O38       2.34650      .   S
    N36    O39       1.13690      .   S
    Zr4    O39       2.32669      .   S
    N40    O41       1.13686      .   S
    Zr1    O41       2.32653      .   S
    N40    O42       1.13542      .   S
    Zr2    O42       2.34657      .   S
    N40    O43       1.34471      .   S
    Zr6    O43       2.59940      .   S
    N44    O45       2.36232  1_564   S
    Zr2    O45       3.45932      .   S
    N44    O46       2.36270  1_565   S
    Zr4    O46       3.45992      .   S
    N44    O47       2.36226      .   S
    Zr3    O47       3.45915      .   S
    N44    O48       2.36221  1_554   S
    Zr5    O48       3.45929      .   S
    N49    O50       1.13669      .   S
    Zr6    O50       2.32602      .   S
    N49    O51       1.34490      .   S
    Zr1    O51       2.59990      .   S
    N49    O52       1.13555      .   S
    Zr4    O52       2.34688      .   S
    N53    O54       1.13615      .   S
    Zr6    O54       2.33707      .   S
    N53    O55       1.13641      .   S
    Zr1    O55       2.33785  1_655   S
    N53    O56       1.32090      .   S
    Zr0    O56       2.53674  1_565   S
    N53    O57       1.32057      .   S
    Zr7    O57       2.53546  1_565   S
    N58    O59       1.34510  1_455   S
    Zr2    O59       2.60040      .   S
    N58    O60       1.13560      .   S
    Zr6    O60       2.34712      .   S
    N58    O61       1.13642      .   S
    Zr5    O61       2.32525  1_655   S
    N62    O63       1.34524      .   S
    Zr5    O63       2.60098      .   S
    N62    O64       1.13683      .   S
    Zr2    O64       2.32637      .   S
    N62    O65       1.13568      .   S
    Zr0    O65       2.34743      .   S
    N66    O67       1.13678  1_455   S
    Zr3    O67       2.32628      .   S
    N66    O68       1.34468      .   S
    Zr4    O68       2.59930      .   S
    N66    O69       1.13544  1_455   S
    Zr1    O69       2.34656      .   S
