# CIF file generated by openbabel 2.4.90, see http://openbabel.sf.net
data_I
_chemical_name_common ''
_cell_length_a 9.8895
_cell_length_b 14.0466
_cell_length_c 14.0477
_cell_angle_alpha 82.8964
_cell_angle_beta 69.3924
_cell_angle_gamma 69.4098
_space_group_name_H-M_alt 'P 1'
_space_group_name_Hall 'P 1'
loop_
    _symmetry_equiv_pos_as_xyz
    x,y,z
loop_
    _atom_site_label
    _atom_site_type_symbol
    _atom_site_fract_x
    _atom_site_fract_y
    _atom_site_fract_z
    _atom_site_occupancy
    C0      C    0.46481   0.84484   0.58873   1.000
    C1      C    0.89832   0.15523   0.41124   1.000
    C2      C    0.69026   0.41125   0.84491   1.000
    C3      C    0.94641   0.58877   0.15522   1.000
    C4      C    0.39835   0.41124   0.15522   1.000
    C5      C    0.96482   0.58874   0.84484   1.000
    C6      C    0.44636   0.15524   0.58876   1.000
    C7      C    0.19024   0.84493   0.41123   1.000
    C8      C    0.80237   0.71312   0.38908   1.000
    C9      C    0.22069   0.16329   0.90458   1.000
    C10     C    0.90436   0.28710   0.61089   1.000
    C11     C    0.29002   0.83683   0.09533   1.000
    C12     C    0.48431   0.61099   0.71316   1.000
    C13     C    0.61462   0.09532   0.16328   1.000
    C14     C    0.80841   0.38932   0.28725   1.000
    C15     C    0.87555   0.90459   0.83673   1.000
    C16     C    0.40431   0.61090   0.28711   1.000
    C17     C    0.79048   0.09535   0.83683   1.000
    C18     C    0.30239   0.38907   0.71316   1.000
    C19     C    0.72057   0.90457   0.16327   1.000
    C20     C    0.30838   0.28722   0.38932   1.000
    C21     C    0.37513   0.83675   0.90457   1.000
    C22     C    0.98430   0.71315   0.61099   1.000
    C23     C    0.11468   0.16329   0.09532   1.000
    C24     C    0.86360   0.77255   0.50042   1.000
    C25     C    0.13584   0.22756   0.50039   1.000
    C26     C    0.36365   0.50042   0.77255   1.000
    C27     C    0.63585   0.50038   0.22757   1.000
    C28     C    0.70212   0.71472   0.37320   1.000
    C29     C    0.23212   0.09226   0.94712   1.000
    C30     C    0.78984   0.28547   0.62682   1.000
    C31     C    0.27235   0.90783   0.05278   1.000
    C32     C    0.58303   0.62682   0.71471   1.000
    C33     C    0.67511   0.05279   0.09226   1.000
    C34     C    0.92461   0.37331   0.28554   1.000
    C35     C    0.82141   0.94712   0.90778   1.000
    C36     C    0.28980   0.62682   0.28547   1.000
    C37     C    0.77268   0.05280   0.90783   1.000
    C38     C    0.20213   0.37320   0.71474   1.000
    C39     C    0.73212   0.94711   0.09224   1.000
    C40     C    0.42457   0.28554   0.37332   1.000
    C41     C    0.32110   0.90780   0.94711   1.000
    C42     C    0.08302   0.71470   0.62681   1.000
    C43     C    0.17506   0.09227   0.05279   1.000
    C44     C    0.82259   0.85467   0.50015   1.000
    C45     C    0.17705   0.14544   0.50021   1.000
    C46     C    0.32262   0.50014   0.85468   1.000
    C47     C    0.67706   0.50021   0.14544   1.000
    C48     C    0.36044   0.00002   0.77975   1.000
    C49     C    0.30346   0.00002   0.89369   1.000
    C50     C    0.14000   0.00007   0.22015   1.000
    C51     C    0.19691   0.00005   0.10621   1.000
    C52     C    0.64021   0.22016   0.00007   1.000
    C53     C    0.69709   0.10623   0.00006   1.000
    C54     C    0.86052   0.77977   0.00000   1.000
    C55     C    0.80360   0.89370   1.00000   1.000
    C56     C    0.55710   0.76734   0.42532   1.000
    C57     C    0.47207   0.75133   0.37490   1.000
    C58     C    0.56322   0.69119   0.29597   1.000
    C59     C    0.70974   0.66673   0.29369   1.000
    C60     C    0.67474   0.91200   0.53001   1.000
    C61     C    0.67411   0.00879   0.51769   1.000
    C62     C    0.74947   0.23286   0.57471   1.000
    C63     C    0.59804   0.24886   0.62520   1.000
    C64     C    0.55023   0.30900   0.70413   1.000
    C65     C    0.67006   0.33344   0.70637   1.000
    C66     C    0.11677   0.08807   0.46998   1.000
    C67     C    0.20101   0.99130   0.48190   1.000
    C68     C    0.67540   0.57472   0.76732   1.000
    C69     C    0.77654   0.62509   0.75121   1.000
    C70     C    0.74558   0.70396   0.69100   1.000
    C71     C    0.62348   0.70625   0.66661   1.000
    C72     C    0.41311   0.46995   0.91203   1.000
    C73     C    0.31695   0.48177   0.00880   1.000
    C74     C    0.01759   0.42540   0.23293   1.000
    C75     C    0.15307   0.37481   0.24879   1.000
    C76     C    0.14079   0.29584   0.30883   1.000
    C77     C    0.99648   0.29368   0.33338   1.000
    C78     C    0.79493   0.53021   0.08810   1.000
    C79     C    0.80780   0.51795   0.99133   1.000
    C80     C    0.24944   0.57472   0.23285   1.000
    C81     C    0.09806   0.62522   0.24883   1.000
    C82     C    0.05022   0.70414   0.30897   1.000
    C83     C    0.17003   0.70637   0.33343   1.000
    C84     C    0.61674   0.47001   0.08808   1.000
    C85     C    0.70096   0.48196   0.99132   1.000
    C86     C    0.05711   0.42533   0.76734   1.000
    C87     C    0.97206   0.37493   0.75131   1.000
    C88     C    0.06321   0.29600   0.69117   1.000
    C89     C    0.20974   0.29370   0.66673   1.000
    C90     C    0.17477   0.53001   0.91202   1.000
    C91     C    0.17415   0.51767   0.00878   1.000
    C92     C    0.51752   0.23293   0.42540   1.000
    C93     C    0.65301   0.24883   0.37483   1.000
    C94     C    0.64073   0.30891   0.29589   1.000
    C95     C    0.49644   0.33343   0.29371   1.000
    C96     C    0.29490   0.08811   0.53021   1.000
    C97     C    0.30780   0.99133   0.51791   1.000
    C98     C    0.17543   0.76734   0.57472   1.000
    C99     C    0.27656   0.75122   0.62508   1.000
    C100    C    0.24558   0.69100   0.70393   1.000
    C101    C    0.12346   0.66660   0.70623   1.000
    C102    C    0.91309   0.91204   0.46998   1.000
    C103    C    0.81692   0.00881   0.48181   1.000
    C104    C    0.35951   0.92531   0.73717   1.000
    C105    C    0.02202   0.07484   0.26278   1.000
    C106    C    0.71567   0.26278   0.92531   1.000
    C107    C    0.90401   0.73718   0.07468   1.000
    C108    C    0.52226   0.26277   0.07485   1.000
    C109    C    0.85959   0.73718   0.92529   1.000
    C110    C    0.40397   0.07471   0.73718   1.000
    C111    C    0.21547   0.92533   0.26276   1.000
    O112    O    0.88226   0.75847   0.03734   1.000
    O113    O    0.86006   0.75847   0.96265   1.000
    O114    O    0.83206   0.83673   0.00000   1.000
    O115    O    0.66865   0.16319   0.00006   1.000
    O116    O    0.68610   0.07951   0.04616   1.000
    O117    O    0.73489   0.07951   0.95394   1.000
    O118    O    0.58124   0.24147   0.03746   1.000
    O119    O    0.67794   0.24147   0.96269   1.000
    O120    O    0.24555   0.49972   0.00879   1.000
    O121    O    0.06028   0.55322   0.08200   1.000
    O122    O    0.17446   0.52384   0.96040   1.000
    O123    O    0.35765   0.44650   0.08201   1.000
    O124    O    0.36503   0.47586   0.96041   1.000
    O125    O    0.28118   0.87233   0.07406   1.000
    O126    O    0.23463   0.95394   0.07950   1.000
    O127    O    0.29672   0.90781   0.99995   1.000
    O128    O    0.14487   0.12778   0.07406   1.000
    O129    O    0.18598   0.04616   0.07950   1.000
    O130    O    0.20359   0.09227   0.99996   1.000
    O131    O    0.92521   0.66297   0.11495   1.000
    O132    O    0.46031   0.33701   0.11504   1.000
    O133    O    0.64690   0.48511   0.11676   1.000
    O134    O    0.50754   0.44063   0.12165   1.000
    O135    O    0.65885   0.47599   0.03970   1.000
    O136    O    0.73600   0.51521   0.11677   1.000
    O137    O    0.87067   0.55949   0.12166   1.000
    O138    O    0.80137   0.52408   0.03971   1.000
    O139    O    0.70362   0.99995   0.09225   1.000
    O140    O    0.72634   0.92584   0.12776   1.000
    O141    O    0.76786   0.92040   0.04612   1.000
    O142    O    0.64486   0.07406   0.12777   1.000
    O143    O    0.16846   0.00006   0.16318   1.000
    O144    O    0.65646   0.50029   0.18650   1.000
    O145    O    0.32390   0.49298   0.19403   1.000
    O146    O    0.27571   0.39302   0.20200   1.000
    O147    O    0.44739   0.37233   0.22447   1.000
    O148    O    0.98200   0.50708   0.19408   1.000
    O149    O    0.02223   0.60699   0.20203   1.000
    O150    O    0.82807   0.62775   0.22445   1.000
    O151    O    0.17774   0.96270   0.24145   1.000
    O152    O    0.08101   0.03745   0.24147   1.000
    O153    O    0.17375   0.59997   0.24084   1.000
    O154    O    0.26962   0.60077   0.25916   1.000
    O155    O    0.08533   0.40010   0.24086   1.000
    O156    O    0.97110   0.39935   0.25923   1.000
    O157    O    0.14693   0.33532   0.27881   1.000
    O158    O    0.07414   0.66468   0.27890   1.000
    O159    O    0.20286   0.88513   0.33699   1.000
    O160    O    0.96017   0.11503   0.33701   1.000
    O161    O    0.34705   0.61886   0.28629   1.000
    O162    O    0.22991   0.66660   0.30945   1.000
    O163    O    0.86651   0.38132   0.28640   1.000
    O164    O    0.96054   0.33350   0.30946   1.000
    O165    O    0.63648   0.67896   0.29483   1.000
    O166    O    0.70593   0.69073   0.33344   1.000
    O167    O    0.56859   0.32117   0.29480   1.000
    O168    O    0.46051   0.30949   0.33352   1.000
    O169    O    0.64687   0.27887   0.33536   1.000
    O170    O    0.51765   0.72126   0.33544   1.000
    O171    O    0.06863   0.29476   0.32110   1.000
    O172    O    0.11012   0.70525   0.32120   1.000
    O173    O    0.94740   0.22445   0.37231   1.000
    O174    O    0.18014   0.77565   0.37233   1.000
    O175    O    0.75224   0.71392   0.38114   1.000
    O176    O    0.62961   0.74103   0.39926   1.000
    O177    O    0.36648   0.28638   0.38132   1.000
    O178    O    0.47105   0.25924   0.39936   1.000
    O179    O    0.77566   0.20203   0.39304   1.000
    O180    O    0.58526   0.24088   0.40012   1.000
    O181    O    0.33116   0.79813   0.39307   1.000
    O182    O    0.51459   0.75933   0.40011   1.000
    O183    O    0.05167   0.87848   0.44060   1.000
    O184    O    0.19562   0.91812   0.44656   1.000
    O185    O    0.18284   0.80613   0.49297   1.000
    O186    O    0.00754   0.12165   0.44061   1.000
    O187    O    0.85762   0.08202   0.44652   1.000
    O188    O    0.82390   0.19404   0.49298   1.000
    O189    O    0.51095   0.80609   0.50703   1.000
    O190    O    0.48194   0.19408   0.50708   1.000
    O191    O    0.86500   0.96042   0.47589   1.000
    O192    O    0.86784   0.88336   0.48507   1.000
    O193    O    0.15889   0.03969   0.47594   1.000
    O194    O    0.14691   0.11675   0.48509   1.000
    O195    O    0.74552   0.00880   0.49975   1.000
    O196    O    0.25440   0.99132   0.49990   1.000
    O197    O    0.84309   0.81361   0.50029   1.000
    O198    O    0.74866   0.88334   0.51508   1.000
    O199    O    0.15644   0.18650   0.50030   1.000
    O200    O    0.23598   0.11678   0.51521   1.000
    O201    O    0.67443   0.96040   0.52385   1.000
    O202    O    0.56024   0.08201   0.55322   1.000
    O203    O    0.30135   0.03972   0.52406   1.000
    O204    O    0.38630   0.91808   0.55332   1.000
    O205    O    0.56977   0.87842   0.55937   1.000
    O206    O    0.37063   0.12168   0.55948   1.000
    O207    O    0.67376   0.24086   0.59996   1.000
    O208    O    0.76965   0.25917   0.60076   1.000
    O209    O    0.22600   0.75928   0.59990   1.000
    O210    O    0.12923   0.74102   0.60077   1.000
    O211    O    0.37068   0.79803   0.60691   1.000
    O212    O    0.54414   0.77555   0.62767   1.000
    O213    O    0.41216   0.88507   0.66295   1.000
    O214    O    0.52220   0.20205   0.60698   1.000
    O215    O    0.32805   0.22447   0.62774   1.000
    O216    O    0.42517   0.11497   0.66297   1.000
    O217    O    0.84710   0.28629   0.61886   1.000
    O218    O    0.03366   0.71393   0.61890   1.000
    O219    O    0.26107   0.72111   0.66451   1.000
    O220    O    0.57414   0.27893   0.66467   1.000
    O221    O    0.10324   0.69065   0.66652   1.000
    O222    O    0.72995   0.30945   0.66659   1.000
    O223    O    0.68453   0.70511   0.67881   1.000
    O224    O    0.60326   0.66654   0.69066   1.000
    O225    O    0.13647   0.29485   0.67895   1.000
    O226    O    0.20593   0.33345   0.69073   1.000
    O227    O    0.76106   0.66452   0.72111   1.000
    O228    O    0.01764   0.33547   0.72124   1.000
    O229    O    0.18452   0.67880   0.70508   1.000
    O230    O    0.61015   0.32122   0.70525   1.000
    O231    O    0.04414   0.62767   0.77554   1.000
    O232    O    0.68016   0.37235   0.77564   1.000
    O233    O    0.25226   0.38113   0.71395   1.000
    O234    O    0.53367   0.61891   0.71393   1.000
    O235    O    0.62921   0.60077   0.74102   1.000
    O236    O    0.12962   0.39926   0.74104   1.000
    O237    O    0.35998   0.96266   0.75846   1.000
    O238    O    0.38221   0.03736   0.75847   1.000
    O239    O    0.72597   0.59991   0.75927   1.000
    O240    O    0.87068   0.60692   0.79803   1.000
    O241    O    0.01459   0.40013   0.75933   1.000
    O242    O    0.83116   0.39309   0.79811   1.000
    O243    O    0.68283   0.49299   0.80612   1.000
    O244    O    0.01097   0.50703   0.80609   1.000
    O245    O    0.34314   0.50028   0.81361   1.000
    O246    O    0.33195   0.00002   0.83672   1.000
    O247    O    0.84848   0.92586   0.87225   1.000
    O248    O    0.78158   0.07408   0.87233   1.000
    O249    O    0.06980   0.55937   0.87843   1.000
    O250    O    0.91221   0.66296   0.88507   1.000
    O251    O    0.88631   0.55335   0.91808   1.000
    O252    O    0.55168   0.44060   0.87847   1.000
    O253    O    0.70296   0.33702   0.88511   1.000
    O254    O    0.69561   0.44660   0.91812   1.000
    O255    O    0.24870   0.51507   0.88335   1.000
    O256    O    0.36787   0.48505   0.88335   1.000
    O257    O    0.31228   0.95391   0.92040   1.000
    O258    O    0.26779   0.04614   0.92040   1.000
    O259    O    0.34812   0.87227   0.92584   1.000
    O260    O    0.22640   0.12778   0.92585   1.000
    O261    O    0.79704   0.99996   0.90780   1.000
    O262    O    0.81250   0.92041   0.95389   1.000
    O263    O    0.75438   0.49995   0.99132   1.000
loop_
    _geom_bond_atom_site_label_1
    _geom_bond_atom_site_label_2
    _geom_bond_distance
    _geom_bond_site_symmetry_2
    _ccdc_geom_bond_type
    C54    O112      0.63734      .   S
    C107   O112      0.63734      .   S
    C54    O113      0.63741  1_554   S
    C109   O113      0.63741      .   S
    C54    O114      0.74904      .   S
    C55    O114      0.74904  1_556   S
    C53    O115      0.74909      .   S
    C52    O115      0.74909      .   S
    C53    O116      0.70079      .   S
    C33    O116      0.70079      .   S
    C53    O117      0.70084  1_554   S
    C37    O117      0.70084      .   S
    C52    O118      0.63723      .   S
    C108   O118      0.63723      .   S
    C52    O119      0.63741  1_554   S
    C106   O119      0.63741      .   S
    C91    O120      0.66106      .   S
    C73    O120      0.66106      .   S
    C91    O121      1.22130      .   S
    C3     O121      1.22130  1_655   S
    C91    O122      0.67351  1_554   S
    C90    O122      0.67351      .   S
    C73    O123      1.22075      .   S
    C4     O123      1.22075      .   S
    C73    O124      0.67352  1_554   S
    C72    O124      0.67352      .   S
    C31    O125      0.54452      .   S
    C11    O125      0.54452      .   S
    C31    O126      0.70083      .   S
    C51    O126      0.70083  1_545   S
    C31    O127      0.69499  1_554   S
    C41    O127      0.69499      .   S
    C43    O128      0.54456      .   S
    C23    O128      0.54456      .   S
    C43    O129      0.70082      .   S
    C51    O129      0.70082      .   S
    C43    O130      0.69500  1_554   S
    C29    O130      0.69500      .   S
    C107   O131      1.11102      .   S
    C3     O131      1.11102      .   S
    C108   O132      1.11090      .   S
    C4     O132      1.11090      .   S
    C84    O133      0.66818      .   S
    C47    O133      0.66818      .   S
    C84    O134      1.21073      .   S
    C4     O134      1.21073      .   S
    C84    O135      0.67352      .   S
    C85    O135      0.67352  1_556   S
    C78    O136      0.66819      .   S
    C47    O136      0.66819      .   S
    C78    O137      1.21062      .   S
    C3     O137      1.21062      .   S
    C78    O138      0.67353      .   S
    C79    O138      0.67353  1_556   S
    C39    O139      0.69509      .   S
    C33    O139      0.69509  1_545   S
    C39    O140      0.54454      .   S
    C19    O140      0.54454      .   S
    C39    O141      0.70078      .   S
    C55    O141      0.70078  1_556   S
    C33    O142      0.54456      .   S
    C13    O142      0.54456      .   S
    C51    O143      0.74909      .   S
    C50    O143      0.74909      .   S
    C47    O144      0.53994      .   S
    C27    O144      0.53994      .   S
    C4     O145      1.19808      .   S
    C80    O145      1.19808      .   S
    C4     O146      1.25852      .   S
    C75    O146      1.25852      .   S
    C4     O147      1.22247      .   S
    C95    O147      1.22247      .   S
    C3     O148      1.19775      .   S
    C74    O148      1.19775  1_455   S
    C3     O149      1.25853  1_655   S
    C81    O149      1.25853      .   S
    C3     O150      1.22272      .   S
    C59    O150      1.22272      .   S
    C50    O151      0.63739  1_545   S
    C111   O151      0.63739      .   S
    C50    O152      0.63733      .   S
    C105   O152      0.63733      .   S
    C80    O153      0.68022      .   S
    C81    O153      0.68022      .   S
    C80    O154      0.66859      .   S
    C36    O154      0.66859      .   S
    C74    O155      0.68029      .   S
    C75    O155      0.68029      .   S
    C74    O156      0.66858  1_455   S
    C34    O156      0.66858      .   S
    C75    O157      0.66107      .   S
    C76    O157      0.66107      .   S
    C81    O158      0.66104      .   S
    C82    O158      0.66104      .   S
    C111   O159      1.11101      .   S
    C7     O159      1.11101      .   S
    C105   O160      1.11085  1_455   S
    C1     O160      1.11085      .   S
    C36    O161      0.54127      .   S
    C16    O161      0.54127      .   S
    C36    O162      0.67064      .   S
    C83    O162      0.67064      .   S
    C34    O163      0.54127      .   S
    C14    O163      0.54127      .   S
    C34    O164      0.67062      .   S
    C77    O164      0.67062      .   S
    C59    O165      0.67794      .   S
    C58    O165      0.67794      .   S
    C59    O166      0.67060      .   S
    C28    O166      0.67060      .   S
    C95    O167      0.67788      .   S
    C94    O167      0.67788      .   S
    C95    O168      0.67061      .   S
    C40    O168      0.67061      .   S
    C94    O169      0.66108      .   S
    C93    O169      0.66108      .   S
    C58    O170      0.66109      .   S
    C57    O170      0.66109      .   S
    C76    O171      0.67786      .   S
    C77    O171      0.67786  1_655   S
    C82    O172      0.67790      .   S
    C83    O172      0.67790      .   S
    C77    O173      1.22223      .   S
    C1     O173      1.22223      .   S
    C83    O174      1.22226      .   S
    C7     O174      1.22226      .   S
    C28    O175      0.54130      .   S
    C8     O175      0.54130      .   S
    C28    O176      0.66863      .   S
    C56    O176      0.66863      .   S
    C40    O177      0.54128      .   S
    C20    O177      0.54128      .   S
    C40    O178      0.66860      .   S
    C92    O178      0.66860      .   S
    C93    O179      1.25892      .   S
    C1     O179      1.25892      .   S
    C93    O180      0.68025      .   S
    C92    O180      0.68025      .   S
    C57    O181      1.25941      .   S
    C7     O181      1.25941      .   S
    C57    O182      0.68023      .   S
    C56    O182      0.68023      .   S
    C7     O183      1.21091      .   S
    C102   O183      1.21091  1_655   S
    C7     O184      1.22041      .   S
    C67    O184      1.22041      .   S
    C7     O185      1.19794      .   S
    C98    O185      1.19794      .   S
    C1     O186      1.21106  1_655   S
    C66    O186      1.21106      .   S
    C1     O187      1.22055      .   S
    C103   O187      1.22055      .   S
    C1     O188      1.19794      .   S
    C62    O188      1.19794      .   S
    C56    O189      1.19709      .   S
    C0     O189      1.19709      .   S
    C92    O190      1.19757      .   S
    C6     O190      1.19757      .   S
    C102   O191      0.67363      .   S
    C103   O191      0.67363  1_545   S
    C102   O192      0.66816      .   S
    C44    O192      0.66816      .   S
    C66    O193      0.67361      .   S
    C67    O193      0.67361  1_565   S
    C66    O194      0.66818      .   S
    C45    O194      0.66818      .   S
    C103   O195      0.66104      .   S
    C61    O195      0.66104      .   S
    C67    O196      0.66105      .   S
    C97    O196      0.66105      .   S
    C44    O197      0.53995      .   S
    C24    O197      0.53995      .   S
    C44    O198      0.66819      .   S
    C60    O198      0.66819      .   S
    C45    O199      0.53994      .   S
    C25    O199      0.53994      .   S
    C45    O200      0.66821      .   S
    C96    O200      0.66821      .   S
    C61    O201      0.67357  1_545   S
    C60    O201      0.67357      .   S
    C61    O202      1.22145      .   S
    C6     O202      1.22145      .   S
    C97    O203      0.67360  1_565   S
    C96    O203      0.67360      .   S
    C97    O204      1.22150      .   S
    C0     O204      1.22150      .   S
    C60    O205      1.21042      .   S
    C0     O205      1.21042      .   S
    C96    O206      1.21051      .   S
    C6     O206      1.21051      .   S
    C62    O207      0.68030      .   S
    C63    O207      0.68030      .   S
    C62    O208      0.66860      .   S
    C30    O208      0.66860      .   S
    C98    O209      0.68027      .   S
    C99    O209      0.68027      .   S
    C98    O210      0.66860      .   S
    C42    O210      0.66860      .   S
    C0     O211      1.25925      .   S
    C99    O211      1.25925      .   S
    C0     O212      1.22291      .   S
    C71    O212      1.22291      .   S
    C0     O213      1.11090      .   S
    C104   O213      1.11090      .   S
    C6     O214      1.25863      .   S
    C63    O214      1.25863      .   S
    C6     O215      1.22269      .   S
    C89    O215      1.22269      .   S
    C6     O216      1.11100      .   S
    C110   O216      1.11100      .   S
    C10    O217      0.54127      .   S
    C30    O217      0.54127      .   S
    C22    O218      0.54128  1_655   S
    C42    O218      0.54128      .   S
    C99    O219      0.66108      .   S
    C100   O219      0.66108      .   S
    C63    O220      0.66107      .   S
    C64    O220      0.66107      .   S
    C42    O221      0.67061      .   S
    C101   O221      0.67061      .   S
    C30    O222      0.67064      .   S
    C65    O222      0.67064      .   S
    C71    O223      0.67777      .   S
    C70    O223      0.67777      .   S
    C71    O224      0.67060      .   S
    C32    O224      0.67060      .   S
    C89    O225      0.67794      .   S
    C88    O225      0.67794      .   S
    C89    O226      0.67060      .   S
    C38    O226      0.67060      .   S
    C70    O227      0.66109      .   S
    C69    O227      0.66109      .   S
    C88    O228      0.66109      .   S
    C87    O228      0.66109  1_655   S
    C100   O229      0.67786      .   S
    C101   O229      0.67786      .   S
    C64    O230      0.67789      .   S
    C65    O230      0.67789      .   S
    C101   O231      1.22255      .   S
    C5     O231      1.22255  1_655   S
    C65    O232      1.22229      .   S
    C2     O232      1.22229      .   S
    C18    O233      0.54130      .   S
    C38    O233      0.54130      .   S
    C12    O234      0.54128      .   S
    C32    O234      0.54128      .   S
    C32    O235      0.66853      .   S
    C68    O235      0.66853      .   S
    C38    O236      0.66863      .   S
    C86    O236      0.66863      .   S
    C104   O237      0.63741      .   S
    C48    O237      0.63741  1_545   S
    C110   O238      0.63737      .   S
    C48    O238      0.63737      .   S
    C69    O239      0.68025      .   S
    C68    O239      0.68025      .   S
    C69    O240      1.25967      .   S
    C5     O240      1.25967      .   S
    C87    O241      0.68022  1_655   S
    C86    O241      0.68022      .   S
    C87    O242      1.25921      .   S
    C2     O242      1.25921      .   S
    C68    O243      1.19778      .   S
    C2     O243      1.19778      .   S
    C86    O244      1.19707      .   S
    C5     O244      1.19707  1_655   S
    C26    O245      0.53995      .   S
    C46    O245      0.53995      .   S
    C48    O246      0.74904      .   S
    C49    O246      0.74904      .   S
    C15    O247      0.54456      .   S
    C35    O247      0.54456      .   S
    C17    O248      0.54453      .   S
    C37    O248      0.54453      .   S
    C5     O249      1.21080  1_655   S
    C90    O249      1.21080      .   S
    C5     O250      1.11094      .   S
    C109   O250      1.11094      .   S
    C5     O251      1.22117      .   S
    C79    O251      1.22117      .   S
    C2     O252      1.21085      .   S
    C72    O252      1.21085      .   S
    C2     O253      1.11096      .   S
    C106   O253      1.11096      .   S
    C2     O254      1.22062      .   S
    C85    O254      1.22062      .   S
    C46    O255      0.66817      .   S
    C90    O255      0.66817      .   S
    C46    O256      0.66818      .   S
    C72    O256      0.66818      .   S
    C49    O257      0.70080  1_545   S
    C41    O257      0.70080      .   S
    C49    O258      0.70089      .   S
    C29    O258      0.70089      .   S
    C21    O259      0.54456      .   S
    C41    O259      0.54456      .   S
    C9     O260      0.54455      .   S
    C29    O260      0.54455      .   S
    C35    O261      0.69508      .   S
    C37    O261      0.69508  1_545   S
    C35    O262      0.70080      .   S
    C55    O262      0.70080      .   S
    C85    O263      0.66105      .   S
    C79    O263      0.66105      .   S
