# CIF file generated by openbabel 2.4.90, see http://openbabel.sf.net
data_I
_chemical_name_common ''
_cell_length_a 13.694
_cell_length_b 14.215
_cell_length_c 15.969
_cell_angle_alpha 90.002
_cell_angle_beta 89.985
_cell_angle_gamma 89.953
_space_group_name_H-M_alt 'P 1'
_space_group_name_Hall 'P 1'
loop_
    _symmetry_equiv_pos_as_xyz
    x,y,z
loop_
    _atom_site_label
    _atom_site_type_symbol
    _atom_site_fract_x
    _atom_site_fract_y
    _atom_site_fract_z
    _atom_site_occupancy
    H0      H    0.47557   0.92723   0.18984   1.000
    H1      H    0.97557   0.92729   0.18980   1.000
    H2      H    0.28603   0.96949   0.18064   1.000
    H3      H    0.78601   0.96958   0.18056   1.000
    H4      H    0.46322   0.04314   0.30811   1.000
    H5      H    0.96322   0.04321   0.30807   1.000
    H6      H    0.27369   0.08539   0.29893   1.000
    H7      H    0.77367   0.08548   0.29885   1.000
    H8      H    0.27392   0.07237   0.69136   1.000
    H9      H    0.77395   0.07230   0.69129   1.000
    H10     H    0.46377   0.02858   0.68076   1.000
    H11     H    0.96377   0.02851   0.68071   1.000
    H12     H    0.28647   0.95484   0.80833   1.000
    H13     H    0.78650   0.95477   0.80820   1.000
    H14     H    0.47631   0.91107   0.79776   1.000
    H15     H    0.97631   0.91100   0.79771   1.000
    H16     H    0.02397   0.42646   0.31017   1.000
    H17     H    0.52396   0.42637   0.31010   1.000
    H18     H    0.21341   0.46865   0.31875   1.000
    H19     H    0.71343   0.46876   0.31886   1.000
    H20     H    0.03673   0.54385   0.19313   1.000
    H21     H    0.53673   0.54378   0.19306   1.000
    H22     H    0.22617   0.58605   0.20171   1.000
    H23     H    0.72618   0.58617   0.20182   1.000
    H24     H    0.22588   0.57200   0.81006   1.000
    H25     H    0.72587   0.57190   0.81015   1.000
    H26     H    0.03610   0.52770   0.81980   1.000
    H27     H    0.53611   0.52778   0.81974   1.000
    H28     H    0.21319   0.45607   0.69183   1.000
    H29     H    0.71318   0.45598   0.69192   1.000
    H30     H    0.02340   0.41176   0.70159   1.000
    H31     H    0.52342   0.41184   0.70152   1.000
    C32     C    0.13876   0.87102   0.11010   1.000
    C33     C    0.63875   0.87102   0.11009   1.000
    C34     C    0.13151   0.94150   0.17874   1.000
    C35     C    0.63151   0.94152   0.17872   1.000
    C36     C    0.04016   0.96254   0.21413   1.000
    C37     C    0.54016   0.96251   0.21414   1.000
    C38     C    0.21584   0.98615   0.20906   1.000
    C39     C    0.71582   0.98620   0.20901   1.000
    C40     C    0.11080   0.13827   0.38130   1.000
    C41     C    0.61080   0.13827   0.38129   1.000
    C42     C    0.11779   0.07083   0.31027   1.000
    C43     C    0.61778   0.07084   0.31020   1.000
    C44     C    0.03337   0.02674   0.27949   1.000
    C45     C    0.53337   0.02671   0.27951   1.000
    C46     C    0.20905   0.05036   0.27444   1.000
    C47     C    0.70903   0.05041   0.27439   1.000
    C48     C    0.11096   0.12844   0.61140   1.000
    C49     C    0.61097   0.12844   0.61148   1.000
    C50     C    0.11812   0.05742   0.67966   1.000
    C51     C    0.61813   0.05742   0.67965   1.000
    C52     C    0.20944   0.03641   0.71500   1.000
    C53     C    0.70946   0.03637   0.71506   1.000
    C54     C    0.03392   0.01188   0.70918   1.000
    C55     C    0.53393   0.01192   0.70920   1.000
    C56     C    0.13894   0.85807   0.88009   1.000
    C57     C    0.63895   0.85807   0.88009   1.000
    C58     C    0.13206   0.92624   0.80964   1.000
    C59     C    0.63208   0.92624   0.80960   1.000
    C60     C    0.21635   0.97128   0.77971   1.000
    C61     C    0.71637   0.97124   0.77967   1.000
    C62     C    0.04083   0.94675   0.77381   1.000
    C63     C    0.54084   0.94678   0.77383   1.000
    C64     C    0.36068   0.36955   0.38900   1.000
    C65     C    0.86068   0.36960   0.38912   1.000
    C66     C    0.36796   0.44053   0.32085   1.000
    C67     C    0.86797   0.44061   0.32092   1.000
    C68     C    0.45943   0.46196   0.28592   1.000
    C69     C    0.95944   0.46204   0.28600   1.000
    C70     C    0.28371   0.48560   0.29073   1.000
    C71     C    0.78373   0.48570   0.29083   1.000
    C72     C    0.38906   0.63979   0.12029   1.000
    C73     C    0.88907   0.63983   0.12033   1.000
    C74     C    0.38213   0.57162   0.19075   1.000
    C75     C    0.88214   0.57169   0.19082   1.000
    C76     C    0.46646   0.52703   0.22126   1.000
    C77     C    0.96647   0.52712   0.22134   1.000
    C78     C    0.29074   0.55068   0.22607   1.000
    C79     C    0.79076   0.55078   0.22617   1.000
    C80     C    0.38895   0.62704   0.89012   1.000
    C81     C    0.88895   0.62700   0.89015   1.000
    C82     C    0.38169   0.55671   0.82100   1.000
    C83     C    0.88169   0.55663   0.82146   1.000
    C84     C    0.29034   0.53628   0.78585   1.000
    C85     C    0.79032   0.53618   0.78593   1.000
    C86     C    0.46590   0.51156   0.79123   1.000
    C87     C    0.96589   0.51148   0.79130   1.000
    C88     C    0.36067   0.35977   0.61913   1.000
    C89     C    0.86066   0.35973   0.61917   1.000
    C90     C    0.36764   0.42739   0.68990   1.000
    C91     C    0.86763   0.42731   0.69005   1.000
    C92     C    0.28336   0.47207   0.72052   1.000
    C93     C    0.78334   0.47198   0.72060   1.000
    C94     C    0.45892   0.44734   0.72590   1.000
    C95     C    0.95891   0.44726   0.72597   1.000
    O96     O    0.22396   0.85081   0.08200   1.000
    O97     O    0.72396   0.85082   0.08280   1.000
    O98     O    0.02571   0.15675   0.40969   1.000
    O99     O    0.52571   0.15673   0.40970   1.000
    O100    O    0.05874   0.83519   0.08381   1.000
    O101    O    0.55874   0.83519   0.08381   1.000
    O102    O    0.19088   0.17270   0.40891   1.000
    O103    O    0.69088   0.17272   0.40889   1.000
    O104    O    0.02594   0.14835   0.58370   1.000
    O105    O    0.52595   0.14835   0.58373   1.000
    O106    O    0.22382   0.83966   0.90890   1.000
    O107    O    0.72383   0.83966   0.90890   1.000
    O108    O    0.19107   0.16486   0.58601   1.000
    O109    O    0.69108   0.16485   0.58000   1.000
    O110    O    0.05875   0.82306   0.90690   1.000
    O111    O    0.55877   0.82307   0.90695   1.000
    O112    O    0.27558   0.34944   0.41650   1.000
    O113    O    0.77558   0.34945   0.41651   1.000
    O114    O    0.47396   0.65827   0.09158   1.000
    O115    O    0.97396   0.65829   0.09161   1.000
    O116    O    0.44076   0.33335   0.41498   1.000
    O117    O    0.94077   0.33339   0.41503   1.000
    O118    O    0.30886   0.67475   0.09329   1.000
    O119    O    0.80886   0.67476   0.09331   1.000
    O120    O    0.47411   0.64708   0.91741   1.000
    O121    O    0.97411   0.64706   0.91744   1.000
    O122    O    0.27569   0.34147   0.59053   1.000
    O123    O    0.77569   0.34146   0.59054   1.000
    O124    O    0.30887   0.66288   0.91642   1.000
    O125    O    0.80887   0.66287   0.91644   1.000
    O126    O    0.44081   0.32496   0.59180   1.000
    O127    O    0.94081   0.32493   0.59190   1.000
loop_
    _geom_bond_atom_site_label_1
    _geom_bond_atom_site_label_2
    _geom_bond_distance
    _geom_bond_site_symmetry_2
    _ccdc_geom_bond_type
    O96    C32       1.28238      .   S
    O97    C33       1.27790      .   S
    O100   C32       1.27962      .   S
    O101   C33       1.27960      .   S
    O114   C72       1.27710      .   S
    O115   C73       1.27710      .   S
    O118   C72       1.28003      .   S
    O119   C73       1.28001      .   S
    C33    C35       1.48823      .   S
    C32    C34       1.48823      .   S
    C72    C74       1.48806      .   S
    C73    C75       1.48806      .   S
    C35    C39       1.40431      .   S
    C35    C37       1.40454      .   S
    C34    C38       1.40428      .   S
    C34    C36       1.40456      .   S
    H3     C39       1.08879      .   S
    H2     C38       1.08877      .   S
    H1     C36       1.08873  1_655   S
    H0     C37       1.08873      .   S
    C74    C76       1.40423      .   S
    C74    C78       1.40465      .   S
    C75    C77       1.40427      .   S
    C75    C79       1.40469      .   S
    H21    C76       1.08878      .   S
    H20    C77       1.08873  1_455   S
    H22    C78       1.08877      .   S
    H23    C79       1.08879      .   S
    C39    C47       1.38976  1_565   S
    C38    C46       1.38978  1_565   S
    C36    C44       1.38948  1_565   S
    C37    C45       1.38960  1_565   S
    C76    C68       1.38971      .   S
    C77    C69       1.38968      .   S
    C78    C70       1.38978      .   S
    C79    C71       1.38976      .   S
    C47    H7        1.08881      .   S
    C47    C43       1.40423      .   S
    C46    H6        1.08882      .   S
    C46    C42       1.40459      .   S
    C44    H5        1.08870  1_455   S
    C44    C42       1.40428      .   S
    C45    H4        1.08870      .   S
    C45    C43       1.40397      .   S
    C68    H17       1.08875      .   S
    C68    C66       1.40472      .   S
    C69    H16       1.08868  1_655   S
    C69    C67       1.40465      .   S
    C70    H18       1.08877      .   S
    C70    C66       1.40427      .   S
    C71    H19       1.08875      .   S
    C71    C67       1.40422      .   S
    C43    C41       1.48876      .   S
    C42    C40       1.48811      .   S
    C66    C64       1.48744      .   S
    C67    C65       1.48837      .   S
    C41    O103      1.27979      .   S
    C41    O99       1.27731      .   S
    C40    O102      1.27981      .   S
    C40    O98       1.27726      .   S
    C64    O116      1.28025      .   S
    C64    O112      1.27782      .   S
    C65    O117      1.27988      .   S
    C65    O113      1.27742      .   S
    O109   C49       1.31327      .   S
    O104   C48       1.27709      .   S
    O105   C49       1.27741      .   S
    O108   C48       1.27927      .   S
    O122   C88       1.27721      .   S
    O123   C89       1.27722      .   S
    O126   C88       1.28007      .   S
    O127   C89       1.27975      .   S
    C48    C50       1.48896      .   S
    C49    C51       1.48790      .   S
    C88    C90       1.48671      .   S
    C89    C91       1.48774      .   S
    C51    C55       1.40411      .   S
    C51    C53       1.40468      .   S
    C50    C54       1.40414      .   S
    C50    C52       1.40403      .   S
    H11    C54       1.08877  1_655   S
    H10    C55       1.08878      .   S
    C90    C92       1.40469      .   S
    C90    C94       1.40513      .   S
    C91    C93       1.40421      .   S
    C91    C95       1.40458      .   S
    H9     C53       1.08877      .   S
    H8     C52       1.08820      .   S
    H28    C92       1.08878      .   S
    H29    C93       1.08876      .   S
    H31    C94       1.08881      .   S
    H30    C95       1.08876  1_455   S
    C54    C62       1.38972  1_545   S
    C55    C63       1.38975  1_545   S
    C52    C60       1.39065  1_545   S
    C53    C61       1.38948  1_545   S
    C92    C84       1.38945      .   S
    C93    C85       1.38945      .   S
    C94    C86       1.38962      .   S
    C95    C87       1.38963      .   S
    C62    H15       1.08869  1_455   S
    C62    C58       1.40460      .   S
    C63    H14       1.08876      .   S
    C63    C59       1.40442      .   S
    C61    H13       1.08832      .   S
    C61    C59       1.40397      .   S
    C60    H12       1.08876      .   S
    C60    C58       1.40414      .   S
    C84    H24       1.08875      .   S
    C84    C82       1.40199      .   S
    C85    H25       1.08876      .   S
    C85    C83       1.40451      .   S
    C86    H27       1.08879      .   S
    C86    C82       1.40209      .   S
    C87    H26       1.08870  1_655   S
    C87    C83       1.40423      .   S
    C59    C57       1.48826      .   S
    C58    C56       1.48781      .   S
    C82    C80       1.49264      .   S
    C83    C81       1.48795      .   S
    C56    O110      1.27956      .   S
    C56    O106      1.27710      .   S
    C57    O111      1.27982      .   S
    C57    O107      1.27711      .   S
    C80    O124      1.27967      .   S
    C80    O120      1.27737      .   S
    C81    O125      1.27973      .   S
    C81    O121      1.27741      .   S
