# CIF file generated by openbabel 2.4.90, see http://openbabel.sf.net
data_I
_chemical_name_common ''
_cell_length_a 13.694
_cell_length_b 14.215
_cell_length_c 15.969
_cell_angle_alpha 90.002
_cell_angle_beta 89.985
_cell_angle_gamma 89.953
_space_group_name_H-M_alt 'P 1'
_space_group_name_Hall 'P 1'
loop_
    _symmetry_equiv_pos_as_xyz
    x,y,z
loop_
    _atom_site_label
    _atom_site_type_symbol
    _atom_site_fract_x
    _atom_site_fract_y
    _atom_site_fract_z
    _atom_site_occupancy
    O0      O    0.35460   0.19332   0.49821   1.000
    O1      O    0.85461   0.19331   0.49820   1.000
    O2      O    0.39505   0.80461   0.99710   1.000
    O3      O    0.89505   0.80459   0.99713   1.000
    O4      O    0.14511   0.69323   0.00310   1.000
    O5      O    0.64511   0.69324   0.00318   1.000
    O6      O    0.10452   0.30458   0.50258   1.000
    O7      O    0.60452   0.30459   0.50257   1.000
