# CIF file generated by openbabel 2.4.90, see http://openbabel.sf.net
data_I
_chemical_name_common ''
_cell_length_a 13.694
_cell_length_b 14.215
_cell_length_c 15.969
_cell_angle_alpha 90.002
_cell_angle_beta 89.985
_cell_angle_gamma 89.953
_space_group_name_H-M_alt 'P 1'
_space_group_name_Hall 'P 1'
loop_
    _symmetry_equiv_pos_as_xyz
    x,y,z
loop_
    _atom_site_label
    _atom_site_type_symbol
    _atom_site_fract_x
    _atom_site_fract_y
    _atom_site_fract_z
    _atom_site_occupancy
    V0      V    0.96590   0.23430   0.49985   1.000
    V1      V    0.28380   0.76356   0.99989   1.000
    V2      V    0.78380   0.76356   0.99989   1.000
    V3      V    0.03382   0.73433   0.00047   1.000
    V4      V    0.53382   0.73434   0.00046   1.000
    V5      V    0.21588   0.26362   0.50075   1.000
    V6      V    0.71588   0.26362   0.50075   1.000
    V7      V    0.46590   0.23430   0.49984   1.000
