# CIF file generated by openbabel 2.4.90, see http://openbabel.sf.net
data_I
_chemical_name_common ''
_cell_length_a 13.694
_cell_length_b 14.215
_cell_length_c 15.969
_cell_angle_alpha 90.002
_cell_angle_beta 89.985
_cell_angle_gamma 89.953
_space_group_name_H-M_alt 'P 1'
_space_group_name_Hall 'P 1'
loop_
    _symmetry_equiv_pos_as_xyz
    x,y,z
loop_
    _atom_site_label
    _atom_site_type_symbol
    _atom_site_fract_x
    _atom_site_fract_y
    _atom_site_fract_z
    _atom_site_occupancy
    Zr0     Zr   0.46590   0.23430   0.49984   1.000
    Zr1     Zr   0.96590   0.23430   0.49985   1.000
    Zr2     Zr   0.28380   0.76356   0.99989   1.000
    Zr3     Zr   0.78380   0.76356   0.99989   1.000
    Zr4     Zr   0.03382   0.73433   0.00047   1.000
    Zr5     Zr   0.53382   0.73434   0.00046   1.000
    Zr6     Zr   0.21588   0.26362   0.50075   1.000
    Zr7     Zr   0.71588   0.26362   0.50075   1.000
    Zr8     Zr   0.35460   0.19332   0.49821   1.000
    Zr9     Zr   0.85461   0.19331   0.49820   1.000
    Zr10    Zr   0.39505   0.80461   0.99710   1.000
    Zr11    Zr   0.89505   0.80459   0.99713   1.000
    Zr12    Zr   0.14511   0.69323   0.00310   1.000
    Zr13    Zr   0.64511   0.69324   0.00318   1.000
    Zr14    Zr   0.10452   0.30458   0.50258   1.000
    Zr15    Zr   0.60452   0.30459   0.50257   1.000
    O16     O    0.58947   0.71379   0.00182   1.000
    O17     O    0.46443   0.76947   0.99878   1.000
    O18     O    0.08946   0.71378   0.00179   1.000
    O19     O    0.96444   0.76946   0.99880   1.000
    O20     O    0.21445   0.72840   0.00149   1.000
    O21     O    0.71446   0.72840   0.00153   1.000
    O22     O    0.91025   0.21381   0.49902   1.000
    O23     O    0.78525   0.22847   0.49948   1.000
    O24     O    0.41025   0.21381   0.49902   1.000
    O25     O    0.28524   0.22847   0.49948   1.000
    O26     O    0.53521   0.26944   0.50121   1.000
    O27     O    0.03521   0.26944   0.50122   1.000
    O28     O    0.16020   0.28410   0.50167   1.000
    O29     O    0.66020   0.28410   0.50166   1.000
    O30     O    0.33942   0.78408   0.99849   1.000
    O31     O    0.83943   0.78407   0.99851   1.000
    N32     N    0.63315   0.93567   0.17724   1.000
    O33     O    0.68928   0.90636   0.14317   1.000
    O34     O    0.58548   0.89514   0.14356   1.000
    N35     N    0.36634   0.42546   0.68537   1.000
    O36     O    0.31025   0.39759   0.65041   1.000
    O37     O    0.41404   0.38613   0.65050   1.000
    N38     N    0.86633   0.42541   0.68544   1.000
    O39     O    0.81025   0.39756   0.65046   1.000
    O40     O    0.91403   0.38610   0.65058   1.000
    N41     N    0.88336   0.57293   0.18569   1.000
    O42     O    0.93944   0.60092   0.15071   1.000
    O43     O    0.83566   0.61235   0.15099   1.000
    N44     N    0.13316   0.93567   0.17716   1.000
    O45     O    0.18929   0.90635   0.14295   1.000
    O46     O    0.08549   0.89514   0.14355   1.000
    N47     N    0.11659   0.06256   0.67761   1.000
    O48     O    0.06048   0.09189   0.64345   1.000
    O49     O    0.16426   0.10334   0.64426   1.000
    N50     N    0.61661   0.06256   0.67687   1.000
    O51     O    0.56049   0.09189   0.64327   1.000
    O52     O    0.66427   0.10334   0.64257   1.000
    N53     N    0.36649   0.43537   0.32287   1.000
    O54     O    0.41415   0.39464   0.35636   1.000
    O55     O    0.31035   0.40600   0.35696   1.000
    C56     C    0.13338   0.92502   0.81477   1.000
    O57     O    0.18943   0.89703   0.84976   1.000
    O58     O    0.08566   0.88557   0.84941   1.000
    O59     O    0.12504   0.99245   0.74513   1.000
    C60     C    0.86650   0.43542   0.32293   1.000
    O61     O    0.91416   0.39469   0.35641   1.000
    O62     O    0.81036   0.40603   0.35700   1.000
    O63     O    0.87498   0.50553   0.25537   1.000
    C64     C    0.63339   0.92502   0.81452   1.000
    O65     O    0.68944   0.89703   0.84958   1.000
    O66     O    0.58568   0.88557   0.84923   1.000
    O67     O    0.62506   0.99245   0.74476   1.000
    C68     C    0.11633   0.07262   0.31491   1.000
    O69     O    0.06025   0.10052   0.34987   1.000
    O70     O    0.16404   0.11184   0.34990   1.000
    O71     O    0.12469   0.00552   0.24496   1.000
    C72     C    0.61632   0.07263   0.31493   1.000
    O73     O    0.56025   0.10052   0.34988   1.000
    O74     O    0.66403   0.11185   0.34991   1.000
    O75     O    0.62469   0.00552   0.24499   1.000
    C76     C    0.38320   0.56241   0.82297   1.000
    O77     O    0.33553   0.60293   0.85667   1.000
    O78     O    0.43934   0.59167   0.85706   1.000
    O79     O    0.37472   0.49264   0.75518   1.000
    C80     C    0.38335   0.57289   0.18564   1.000
    O81     O    0.33565   0.61231   0.15095   1.000
    O82     O    0.43943   0.60088   0.15066   1.000
    O83     O    0.37498   0.50546   0.25530   1.000
    C84     C    0.88319   0.56237   0.82304   1.000
    O85     O    0.83552   0.60289   0.85672   1.000
    O86     O    0.93934   0.59164   0.85712   1.000
    O87     O    0.87471   0.49258   0.75528   1.000
loop_
    _geom_bond_atom_site_label_1
    _geom_bond_atom_site_label_2
    _geom_bond_distance
    _geom_bond_site_symmetry_2
    _ccdc_geom_bond_type
    Zr5    O16       0.81613      .   S
    Zr13   O16       0.81613      .   S
    Zr5    O17       1.07343  1_554   S
    Zr10   O17       1.07343      .   S
    Zr4    O18       0.81611      .   S
    Zr12   O18       0.81611      .   S
    Zr4    O19       1.07334  1_454   S
    Zr11   O19       1.07334      .   S
    Zr12   O20       1.07384      .   S
    Zr2    O20       1.07384  1_556   S
    Zr13   O21       1.07378      .   S
    Zr3    O21       1.07378  1_556   S
    Zr9    O22       0.81613      .   S
    Zr1    O22       0.81613      .   S
    Zr9    O23       1.07310      .   S
    Zr7    O23       1.07310      .   S
    Zr8    O24       0.81613      .   S
    Zr0    O24       0.81613      .   S
    Zr8    O25       1.07305      .   S
    Zr6    O25       1.07305      .   S
    Zr0    O26       1.07318      .   S
    Zr15   O26       1.07318      .   S
    Zr1    O27       1.07315  1_655   S
    Zr14   O27       1.07315      .   S
    Zr6    O28       0.81610      .   S
    Zr14   O28       0.81610      .   S
    Zr7    O29       0.81610      .   S
    Zr15   O29       0.81610      .   S
    Zr10   O30       0.81617      .   S
    Zr2    O30       0.81617      .   S
    Zr11   O31       0.81615      .   S
    Zr3    O31       0.81615      .   S
    N32    O33       1.02950      .   S
    Zr3    O33       3.32034  1_556   S
    N32    O34       1.02375      .   S
    Zr5    O34       3.30925      .   S
    N35    O36       1.02909      .   S
    Zr6    O36       3.31874      .   S
    N35    O37       1.02384      .   S
    Zr0    O37       3.30870      .   S
    N38    O39       1.02920      .   S
    Zr7    O39       3.31901      .   S
    N38    O40       1.02378      .   S
    Zr1    O40       3.30905      .   S
    N41    O42       1.02974      .   S
    Zr4    O42       3.32046  1_455   S
    N41    O43       1.02337      .   S
    Zr3    O43       3.30835  1_556   S
    N44    O45       1.03057      .   S
    Zr2    O45       3.31784  1_556   S
    N44    O46       1.02313      .   S
    Zr4    O46       3.30899      .   S
    N47    O48       1.03031      .   S
    Zr1    O48       3.32152  1_655   S
    N47    O49       1.02293      .   S
    Zr6    O49       3.30824      .   S
    N50    O51       1.02557      .   S
    Zr0    O51       3.31963      .   S
    N50    O52       1.03081      .   S
    Zr7    O52       3.28960      .   S
    N53    O54       1.02301      .   S
    Zr0    O54       3.30845      .   S
    N53    O55       1.03055      .   S
    Zr6    O55       3.32340      .   S
    C56    O57       1.02928      .   S
    Zr2    O57       3.31888      .   S
    C56    O58       1.02359      .   S
    Zr4    O58       3.30864  1_554   S
    C56    O59       1.47253      .   S
    N47    O59       1.47280  1_545   S
    C60    O61       1.02301      .   S
    Zr1    O61       3.30839      .   S
    C60    O62       1.03051      .   S
    Zr7    O62       3.32333      .   S
    C60    O63       1.47336      .   S
    N41    O63       1.47296      .   S
    C64    O65       1.02979      .   S
    Zr3    O65       3.32100      .   S
    C64    O66       1.02417      .   S
    Zr5    O66       3.31059  1_554   S
    C64    O67       1.47406      .   S
    N50    O67       1.47719  1_545   S
    C68    O69       1.02852      .   S
    Zr1    O69       3.31911  1_655   S
    C68    O70       1.02496      .   S
    Zr6    O70       3.31142      .   S
    C68    O71       1.47325      .   S
    N44    O71       1.47355  1_565   S
    C72    O73       1.02844      .   S
    Zr0    O73       3.31874      .   S
    C72    O74       1.02490      .   S
    Zr7    O74       3.31121      .   S
    C72    O75       1.47306      .   S
    N32    O75       1.47294  1_565   S
    C76    O77       1.02303      .   S
    Zr2    O77       3.30794      .   S
    C76    O78       1.03014      .   S
    Zr5    O78       3.32203  1_554   S
    C76    O79       1.47282      .   S
    N35    O79       1.47258      .   S
    C80    O81       1.02335      .   S
    Zr2    O81       3.30824  1_556   S
    C80    O82       1.02975      .   S
    Zr5    O82       3.32043      .   S
    C80    O83       1.47294      .   S
    N53    O83       1.47339      .   S
    C84    O85       1.02296      .   S
    Zr3    O85       3.30768      .   S
    C84    O86       1.03010      .   S
    Zr4    O86       3.32184  1_454   S
    C84    O87       1.47269      .   S
    N38    O87       1.47266      .   S
