# CIF file generated by openbabel 2.4.90, see http://openbabel.sf.net
data_I
_chemical_name_common ''
_cell_length_a 13.941
_cell_length_b 20.677
_cell_length_c 22.214
_cell_angle_alpha 89.995
_cell_angle_beta 90.511
_cell_angle_gamma 101.284
_space_group_name_H-M_alt 'P 1'
_space_group_name_Hall 'P 1'
loop_
    _symmetry_equiv_pos_as_xyz
    x,y,z
loop_
    _atom_site_label
    _atom_site_type_symbol
    _atom_site_fract_x
    _atom_site_fract_y
    _atom_site_fract_z
    _atom_site_occupancy
    C0      C    0.79685   0.45606   0.92661   1.000
    C1      C    0.20323   0.54397   0.07339   1.000
    C2      C    0.74520   0.75563   0.42535   1.000
    C3      C    0.76643   0.43075   0.09489   1.000
    C4      C    0.77371   0.77827   0.59410   1.000
    C5      C    0.79865   0.95643   0.57457   1.000
    C6      C    0.74685   0.25553   0.07505   1.000
    C7      C    0.76541   0.93066   0.40620   1.000
    C8      C    0.77339   0.27844   0.90662   1.000
    C9      C    0.20139   0.04358   0.42542   1.000
    C10     C    0.25320   0.74449   0.92493   1.000
    C11     C    0.23462   0.06936   0.59377   1.000
    C12     C    0.22664   0.72158   0.09336   1.000
    C13     C    0.25483   0.24439   0.57463   1.000
    C14     C    0.23360   0.56927   0.90510   1.000
    C15     C    0.22633   0.22174   0.40590   1.000
