# CIF file generated by openbabel 2.4.90, see http://openbabel.sf.net
data_I
_chemical_name_common ''
_cell_length_a 18.426
_cell_length_b 18.432
_cell_length_c 18.431
_cell_angle_alpha 60.143
_cell_angle_beta 60.16
_cell_angle_gamma 60.158
_space_group_name_H-M_alt 'P 1'
_space_group_name_Hall 'P 1'
loop_
    _symmetry_equiv_pos_as_xyz
    x,y,z
loop_
    _atom_site_label
    _atom_site_type_symbol
    _atom_site_fract_x
    _atom_site_fract_y
    _atom_site_fract_z
    _atom_site_occupancy
    H0      H    0.04845   0.56797   0.04846   1.000
    H1      H    0.56817   0.04816   0.33560   1.000
    H2      H    0.04774   0.33567   0.04775   1.000
    H3      H    0.33563   0.04820   0.56811   1.000
    H4      H    0.04774   0.04775   0.33568   1.000
    H5      H    0.56817   0.33565   0.04816   1.000
    H6      H    0.04846   0.04845   0.56799   1.000
    H7      H    0.33563   0.56809   0.04820   1.000
    H8      H    0.04816   0.33564   0.56817   1.000
    H9      H    0.56807   0.04841   0.04840   1.000
    H10     H    0.04816   0.56815   0.33566   1.000
    H11     H    0.33564   0.04775   0.04774   1.000
    H12     H    0.43193   0.95155   0.95161   1.000
    H13     H    0.95184   0.43181   0.66435   1.000
    H14     H    0.66436   0.95221   0.95227   1.000
    H15     H    0.95184   0.66432   0.43184   1.000
    H16     H    0.95226   0.95221   0.66433   1.000
    H17     H    0.66437   0.43187   0.95181   1.000
    H18     H    0.95154   0.95151   0.43202   1.000
    H19     H    0.43183   0.66431   0.95185   1.000
    H20     H    0.66437   0.95176   0.43190   1.000
    H21     H    0.95155   0.43199   0.95155   1.000
    H22     H    0.43183   0.95180   0.66430   1.000
    H23     H    0.95226   0.66429   0.95226   1.000
    C24     C    0.02685   0.53895   0.02685   1.000
    C25     C    0.53908   0.02668   0.40766   1.000
    C26     C    0.02644   0.40765   0.02644   1.000
    C27     C    0.40763   0.02670   0.53900   1.000
    C28     C    0.02644   0.02644   0.40767   1.000
    C29     C    0.53908   0.40764   0.02666   1.000
    C30     C    0.02685   0.02684   0.53897   1.000
    C31     C    0.40763   0.53904   0.02668   1.000
    C32     C    0.02667   0.40763   0.53900   1.000
    C33     C    0.53900   0.02682   0.02682   1.000
    C34     C    0.02667   0.53906   0.40766   1.000
    C35     C    0.40764   0.02645   0.02640   1.000
    C36     C    0.46100   0.97313   0.97319   1.000
    C37     C    0.97333   0.46090   0.59235   1.000
    C38     C    0.59236   0.97351   0.97357   1.000
    C39     C    0.97333   0.59233   0.46093   1.000
    C40     C    0.97356   0.97352   0.59234   1.000
    C41     C    0.59237   0.46092   0.97334   1.000
    C42     C    0.97315   0.97311   0.46104   1.000
    C43     C    0.46092   0.59232   0.97336   1.000
    C44     C    0.59236   0.97326   0.46090   1.000
    C45     C    0.97315   0.46101   0.97316   1.000
    C46     C    0.46092   0.97328   0.59235   1.000
    C47     C    0.97356   0.59231   0.97357   1.000
    C48     C    0.05363   0.44626   0.05364   1.000
    C49     C    0.44639   0.05371   0.44638   1.000
    C50     C    0.05363   0.05364   0.44628   1.000
    C51     C    0.44639   0.44636   0.05375   1.000
    C52     C    0.05374   0.44638   0.44640   1.000
    C53     C    0.44629   0.05362   0.05363   1.000
    C54     C    0.55371   0.94634   0.94638   1.000
    C55     C    0.94626   0.55358   0.55361   1.000
    C56     C    0.94637   0.94631   0.55373   1.000
    C57     C    0.55361   0.55360   0.94626   1.000
    C58     C    0.55361   0.94624   0.55360   1.000
    C59     C    0.94637   0.55369   0.94630   1.000
loop_
    _geom_bond_atom_site_label_1
    _geom_bond_atom_site_label_2
    _geom_bond_distance
    _geom_bond_site_symmetry_2
    _ccdc_geom_bond_type
    C35    H11       1.08854      .   S
    C35    C53       1.40396      .   S
    C35    C36       1.39016  1_544   S
    C26    H2        1.08858      .   S
    C26    C48       1.40323      .   S
    C26    C45       1.39015  1_454   S
    C29    H5        1.08858      .   S
    C29    C51       1.40319      .   S
    C29    C41       1.39016  1_554   S
    C31    H7        1.08858      .   S
    C31    C51       1.40315      .   S
    C31    C43       1.39015  1_554   S
    C33    H9        1.08866      .   S
    C33    C53       1.40333      .   S
    C33    C38       1.39067  1_544   S
    C24    H0        1.08861      .   S
    C24    C48       1.40330      .   S
    C24    C47       1.39015  1_454   S
    H1     C25       1.08958      .   S
    H10    C34       1.08868      .   S
    H4     C28       1.08864      .   S
    C25    C49       1.40319      .   S
    C25    C44       1.38955  1_545   S
    C34    C52       1.40319      .   S
    C34    C39       1.39031  1_455   S
    C28    C50       1.40313      .   S
    C28    C42       1.39090  1_445   S
    H15    C39       1.08858      .   S
    H20    C44       1.08854      .   S
    H18    C42       1.08853      .   S
    C50    C30       1.40338      .   S
    C49    C27       1.40229      .   S
    C52    C32       1.40193      .   S
    C44    C58       1.40345      .   S
    C39    C55       1.40310      .   S
    C42    C56       1.40338      .   S
    C30    H6        1.08854      .   S
    C30    C40       1.39088  1_445   S
    C32    H8        1.08870      .   S
    C32    C37       1.39136  1_455   S
    C27    H3        1.08866      .   S
    C27    C46       1.39099  1_545   S
    C58    C46       1.40322      .   S
    C55    C37       1.40318      .   S
    C56    C40       1.40313      .   S
    C40    H16       1.08864      .   S
    C37    H13       1.08868      .   S
    C46    H22       1.08797      .   S
    C57    C41       1.40316      .   S
    C57    C43       1.40318      .   S
    C59    C45       1.40320      .   S
    C59    C47       1.40422      .   S
    C54    C36       1.40334      .   S
    C54    C38       1.40335      .   S
    H21    C45       1.08862      .   S
    H12    C36       1.08861      .   S
    H17    C41       1.08859      .   S
    H19    C43       1.08858      .   S
    H23    C47       1.08858      .   S
    H14    C38       1.08861      .   S
