# CIF file generated by openbabel 2.4.90, see http://openbabel.sf.net
data_I
_chemical_name_common ''
_cell_length_a 18.426
_cell_length_b 18.432
_cell_length_c 18.431
_cell_angle_alpha 60.143
_cell_angle_beta 60.16
_cell_angle_gamma 60.158
_space_group_name_H-M_alt 'P 1'
_space_group_name_Hall 'P 1'
loop_
    _symmetry_equiv_pos_as_xyz
    x,y,z
loop_
    _atom_site_label
    _atom_site_type_symbol
    _atom_site_fract_x
    _atom_site_fract_y
    _atom_site_fract_z
    _atom_site_occupancy
    C0      C    0.11095   0.38889   0.11099   1.000
    C1      C    0.38908   0.11116   0.38900   1.000
    C2      C    0.11095   0.11098   0.38891   1.000
    C3      C    0.38908   0.38904   0.11114   1.000
    C4      C    0.11111   0.38908   0.38910   1.000
    C5      C    0.38894   0.11094   0.11094   1.000
    C6      C    0.61106   0.88902   0.88907   1.000
    C7      C    0.88889   0.61088   0.61090   1.000
    C8      C    0.88905   0.88898   0.61110   1.000
    C9      C    0.61092   0.61091   0.88887   1.000
    C10     C    0.61092   0.88880   0.61090   1.000
    C11     C    0.88905   0.61106   0.88902   1.000
