# CIF file generated by openbabel 2.4.90, see http://openbabel.sf.net
data_I
_chemical_name_common ''
_cell_length_a 18.426
_cell_length_b 18.432
_cell_length_c 18.431
_cell_angle_alpha 60.143
_cell_angle_beta 60.16
_cell_angle_gamma 60.158
_space_group_name_H-M_alt 'P 1'
_space_group_name_Hall 'P 1'
loop_
    _symmetry_equiv_pos_as_xyz
    x,y,z
loop_
    _atom_site_label
    _atom_site_type_symbol
    _atom_site_fract_x
    _atom_site_fract_y
    _atom_site_fract_z
    _atom_site_occupancy
    Zr0     Zr   0.20663   0.38042   0.20672   1.000
    Zr1     Zr   0.38047   0.20663   0.20663   1.000
    Zr2     Zr   0.20636   0.20630   0.20632   1.000
    Zr3     Zr   0.20663   0.20671   0.38044   1.000
    Zr4     Zr   0.61953   0.79333   0.79338   1.000
    Zr5     Zr   0.79336   0.61954   0.79329   1.000
    Zr6     Zr   0.79364   0.79365   0.79369   1.000
    Zr7     Zr   0.79337   0.79325   0.61957   1.000
    Zr8     Zr   0.11095   0.38889   0.11099   1.000
    Zr9     Zr   0.38908   0.11116   0.38900   1.000
    Zr10    Zr   0.11095   0.11098   0.38891   1.000
    Zr11    Zr   0.38908   0.38904   0.11114   1.000
    Zr12    Zr   0.11111   0.38908   0.38910   1.000
    Zr13    Zr   0.38894   0.11094   0.11094   1.000
    Zr14    Zr   0.61106   0.88902   0.88907   1.000
    Zr15    Zr   0.88889   0.61088   0.61090   1.000
    Zr16    Zr   0.88905   0.88898   0.61110   1.000
    Zr17    Zr   0.61092   0.61091   0.88887   1.000
    Zr18    Zr   0.61092   0.88880   0.61090   1.000
    Zr19    Zr   0.88905   0.61106   0.88902   1.000
    Zr20    Zr   0.24999   0.24997   0.24998   1.000
    Zr21    Zr   0.75001   0.74999   0.75003   1.000
    Zr22    Zr   0.13317   0.42850   0.13322   1.000
    Zr23    Zr   0.42868   0.13332   0.30520   1.000
    Zr24    Zr   0.13291   0.30510   0.13296   1.000
    Zr25    Zr   0.30529   0.13331   0.42864   1.000
    Zr26    Zr   0.13291   0.13295   0.30511   1.000
    Zr27    Zr   0.42868   0.30527   0.13332   1.000
    Zr28    Zr   0.13317   0.13322   0.42852   1.000
    Zr29    Zr   0.30529   0.42863   0.13333   1.000
    Zr30    Zr   0.13328   0.30529   0.42869   1.000
    Zr31    Zr   0.42857   0.13316   0.13316   1.000
    Zr32    Zr   0.13328   0.42868   0.30531   1.000
    Zr33    Zr   0.30512   0.13291   0.13292   1.000
    Zr34    Zr   0.57143   0.86679   0.86685   1.000
    Zr35    Zr   0.86672   0.57128   0.69470   1.000
    Zr36    Zr   0.69487   0.86705   0.86709   1.000
    Zr37    Zr   0.86672   0.69466   0.57132   1.000
    Zr38    Zr   0.86709   0.86701   0.69490   1.000
    Zr39    Zr   0.69471   0.57133   0.86668   1.000
    Zr40    Zr   0.86683   0.86674   0.57149   1.000
    Zr41    Zr   0.57132   0.69469   0.86669   1.000
    Zr42    Zr   0.69471   0.86664   0.57137   1.000
    Zr43    Zr   0.86682   0.57146   0.86679   1.000
    Zr44    Zr   0.57132   0.86664   0.69470   1.000
    Zr45    Zr   0.86708   0.69486   0.86705   1.000
    O46     O    0.34703   0.12192   0.12193   1.000
    O47     O    0.40875   0.12205   0.12205   1.000
    O48     O    0.12193   0.34700   0.12198   1.000
    O49     O    0.12206   0.40870   0.12211   1.000
    O50     O    0.40888   0.34715   0.12223   1.000
    O51     O    0.34718   0.40884   0.12224   1.000
    O52     O    0.25574   0.16961   0.16962   1.000
    O53     O    0.16964   0.25570   0.16964   1.000
    O54     O    0.40452   0.16990   0.16990   1.000
    O55     O    0.16990   0.40446   0.16997   1.000
    O56     O    0.40457   0.25595   0.16998   1.000
    O57     O    0.25596   0.40453   0.17003   1.000
    O58     O    0.16964   0.16963   0.25571   1.000
    O59     O    0.40457   0.16997   0.25592   1.000
    O60     O    0.22831   0.31520   0.22835   1.000
    O61     O    0.16996   0.40455   0.25602   1.000
    O62     O    0.22831   0.22834   0.31521   1.000
    O63     O    0.12193   0.12196   0.34701   1.000
    O64     O    0.40888   0.12224   0.34710   1.000
    O65     O    0.12219   0.40888   0.34721   1.000
    O66     O    0.16990   0.16996   0.40448   1.000
    O67     O    0.25596   0.17001   0.40454   1.000
    O68     O    0.16995   0.25600   0.40457   1.000
    O69     O    0.12206   0.12210   0.40872   1.000
    O70     O    0.34718   0.12224   0.40882   1.000
    O71     O    0.12219   0.34719   0.40890   1.000
    O72     O    0.87780   0.65277   0.59111   1.000
    O73     O    0.83005   0.74396   0.59545   1.000
    O74     O    0.65282   0.87772   0.59114   1.000
    O75     O    0.74404   0.82995   0.59547   1.000
    O76     O    0.87794   0.87786   0.59130   1.000
    O77     O    0.83010   0.83000   0.59553   1.000
    O78     O    0.87780   0.59108   0.65280   1.000
    O79     O    0.59112   0.87772   0.65280   1.000
    O80     O    0.87807   0.87799   0.65300   1.000
    O81     O    0.77169   0.77162   0.68480   1.000
    O82     O    0.59543   0.82998   0.74404   1.000
    O83     O    0.83004   0.59541   0.74400   1.000
    O84     O    0.83036   0.83033   0.74430   1.000
    O85     O    0.77169   0.68476   0.77166   1.000
    O86     O    0.74404   0.59543   0.82998   1.000
    O87     O    0.83009   0.59550   0.83004   1.000
    O88     O    0.59542   0.74401   0.83004   1.000
    O89     O    0.59548   0.83006   0.83012   1.000
    O90     O    0.83036   0.74426   0.83037   1.000
    O91     O    0.74426   0.83035   0.83039   1.000
    O92     O    0.65281   0.59112   0.87777   1.000
    O93     O    0.59112   0.65280   0.87778   1.000
    O94     O    0.87794   0.59126   0.87791   1.000
    O95     O    0.59124   0.87791   0.87796   1.000
    O96     O    0.87807   0.65296   0.87804   1.000
    O97     O    0.65297   0.87803   0.87808   1.000
    O98     O    0.31523   0.22830   0.22831   1.000
    O99     O    0.22817   0.22814   0.22815   1.000
    O100    O    0.68477   0.77166   0.77170   1.000
    O101    O    0.77183   0.77182   0.77186   1.000
    N102    N    0.00000   0.99998   0.50001   1.000
    O103    O    0.04114   0.04114   0.45880   1.000
    O104    O    0.95886   0.95881   0.54121   1.000
    N105    N    0.50000   0.99998   0.00000   1.000
    O106    O    0.54119   0.95883   0.95886   1.000
    O107    O    0.45881   0.04113   0.04114   1.000
    N108    N    0.50000   0.49998   0.00001   1.000
    O109    O    0.45887   0.45884   0.04123   1.000
    O110    O    0.54113   0.54112   0.95879   1.000
    N111    N    0.50000   0.99998   0.49998   1.000
    O112    O    0.54113   0.95875   0.54112   1.000
    O113    O    0.45887   0.04121   0.45884   1.000
    N114    N    1.00000   0.49998   1.00000   1.000
    O115    O    0.04114   0.45878   0.04116   1.000
    O116    O    0.95885   0.54118   0.95883   1.000
    N117    N    1.00000   0.49998   0.50000   1.000
    O118    O    0.04121   0.45885   0.45887   1.000
    O119    O    0.95879   0.54110   0.54113   1.000
loop_
    _geom_bond_atom_site_label_1
    _geom_bond_atom_site_label_2
    _geom_bond_distance
    _geom_bond_site_symmetry_2
    _ccdc_geom_bond_type
    Zr13   O46       0.63866      .   S
    Zr33   O46       0.63866      .   S
    Zr13   O47       0.63858      .   S
    Zr31   O47       0.63858      .   S
    Zr8    O48       0.63865      .   S
    Zr24   O48       0.63865      .   S
    Zr8    O49       0.63851      .   S
    Zr22   O49       0.63851      .   S
    Zr11   O50       0.63855      .   S
    Zr27   O50       0.63855      .   S
    Zr11   O51       0.63857      .   S
    Zr29   O51       0.63857      .   S
    Zr33   O52       0.98668      .   S
    Zr2    O52       0.98668      .   S
    Zr24   O53       0.98646      .   S
    Zr2    O53       0.98646      .   S
    Zr31   O54       0.98612      .   S
    Zr1    O54       0.98612      .   S
    Zr22   O55       0.98594      .   S
    Zr0    O55       0.98594      .   S
    Zr27   O56       0.98581      .   S
    Zr1    O56       0.98581      .   S
    Zr29   O57       0.98581      .   S
    Zr0    O57       0.98581      .   S
    Zr2    O58       0.98648      .   S
    Zr26   O58       0.98648      .   S
    Zr1    O59       0.98524      .   S
    Zr23   O59       0.98524      .   S
    Zr0    O60       0.98346      .   S
    Zr20   O60       0.98346      .   S
    Zr0    O61       0.98596      .   S
    Zr32   O61       0.98596      .   S
    Zr20   O62       0.98349      .   S
    Zr3    O62       0.98349      .   S
    Zr26   O63       0.63867      .   S
    Zr10   O63       0.63867      .   S
    Zr23   O64       0.63869      .   S
    Zr9    O64       0.63869      .   S
    Zr32   O65       0.63859      .   S
    Zr12   O65       0.63859      .   S
    Zr3    O66       0.98592      .   S
    Zr28   O66       0.98592      .   S
    Zr3    O67       0.98578      .   S
    Zr25   O67       0.98578      .   S
    Zr3    O68       0.98592      .   S
    Zr30   O68       0.98592      .   S
    Zr10   O69       0.63858      .   S
    Zr28   O69       0.63858      .   S
    Zr9    O70       0.63863      .   S
    Zr25   O70       0.63863      .   S
    Zr12   O71       0.63856      .   S
    Zr30   O71       0.63856      .   S
    Zr37   O72       0.63855      .   S
    Zr15   O72       0.63855      .   S
    Zr37   O73       0.98592      .   S
    Zr7    O73       0.98592      .   S
    Zr42   O74       0.63849      .   S
    Zr18   O74       0.63849      .   S
    Zr42   O75       0.98578      .   S
    Zr7    O75       0.98578      .   S
    Zr40   O76       0.63858      .   S
    Zr16   O76       0.63858      .   S
    Zr40   O77       0.98592      .   S
    Zr7    O77       0.98592      .   S
    Zr15   O78       0.63866      .   S
    Zr35   O78       0.63866      .   S
    Zr18   O79       0.63870      .   S
    Zr44   O79       0.63870      .   S
    Zr16   O80       0.63867      .   S
    Zr38   O80       0.63867      .   S
    Zr7    O81       0.98349      .   S
    Zr21   O81       0.98349      .   S
    Zr44   O82       0.98606      .   S
    Zr4    O82       0.98606      .   S
    Zr35   O83       0.98597      .   S
    Zr5    O83       0.98597      .   S
    Zr38   O84       0.98648      .   S
    Zr6    O84       0.98648      .   S
    Zr21   O85       0.98346      .   S
    Zr5    O85       0.98346      .   S
    Zr5    O86       0.98581      .   S
    Zr39   O86       0.98581      .   S
    Zr5    O87       0.98595      .   S
    Zr43   O87       0.98595      .   S
    Zr4    O88       0.98581      .   S
    Zr41   O88       0.98581      .   S
    Zr4    O89       0.98612      .   S
    Zr34   O89       0.98612      .   S
    Zr6    O90       0.98646      .   S
    Zr45   O90       0.98646      .   S
    Zr6    O91       0.98667      .   S
    Zr36   O91       0.98667      .   S
    Zr39   O92       0.63856      .   S
    Zr17   O92       0.63856      .   S
    Zr41   O93       0.63856      .   S
    Zr17   O93       0.63856      .   S
    Zr43   O94       0.63850      .   S
    Zr19   O94       0.63850      .   S
    Zr34   O95       0.63857      .   S
    Zr14   O95       0.63857      .   S
    Zr45   O96       0.63865      .   S
    Zr19   O96       0.63865      .   S
    Zr36   O97       0.63866      .   S
    Zr14   O97       0.63866      .   S
    Zr20   O98       0.98352      .   S
    Zr1    O98       0.98352      .   S
    Zr20   O99       0.98414      .   S
    Zr2    O99       0.98414      .   S
    Zr21   O100      0.98352      .   S
    Zr4    O100      0.98352      .   S
    Zr21   O101      0.98414      .   S
    Zr6    O101      0.98414      .   S
    N102   O103      1.07378  1_565   S
    Zr10   O103      1.82167      .   S
    N102   O104      1.07378  1_455   S
    Zr16   O104      1.82167      .   S
    N105   O106      1.07390  1_554   S
    Zr14   O106      1.82186      .   S
    N105   O107      1.07396  1_565   S
    Zr13   O107      1.82191      .   S
    N108   O109      1.07328      .   S
    Zr11   O109      1.82095      .   S
    N108   O110      1.07328  1_554   S
    Zr17   O110      1.82095      .   S
    N111   O112      1.07318      .   S
    Zr18   O112      1.82072      .   S
    N111   O113      1.07331  1_565   S
    Zr9    O113      1.82136      .   S
    N114   O115      1.07364  1_656   S
    Zr8    O115      1.82155      .   S
    N114   O116      1.07377      .   S
    Zr19   O116      1.82125      .   S
    N117   O118      1.07338  1_655   S
    Zr12   O118      1.82113      .   S
    N117   O119      1.07345      .   S
    Zr15   O119      1.82115      .   S
