# CIF file generated by openbabel 2.4.90, see http://openbabel.sf.net
data_I
_chemical_name_common ''
_cell_length_a 18.416
_cell_length_b 18.423
_cell_length_c 18.422
_cell_angle_alpha 60.238
_cell_angle_beta 60.207
_cell_angle_gamma 60.208
_space_group_name_H-M_alt 'P 1'
_space_group_name_Hall 'P 1'
loop_
    _symmetry_equiv_pos_as_xyz
    x,y,z
loop_
    _atom_site_label
    _atom_site_type_symbol
    _atom_site_fract_x
    _atom_site_fract_y
    _atom_site_fract_z
    _atom_site_occupancy
    N0      N    0.50000   0.99999   1.00000   1.000
    N1      N    0.00000   0.49999   0.50001   1.000
    N2      N    0.00001   0.99999   0.49944   1.000
    N3      N    0.50001   0.49999   0.00001   1.000
    N4      N    0.50001   0.99998   0.49998   1.000
    N5      N    0.00001   0.49999   0.99997   1.000
    Zr6     Zr   0.74999   0.74993   0.74996   1.000
    Zr7     Zr   0.25002   0.25004   0.25005   1.000
    O8      O    0.16744   0.16747   0.33242   1.000
    O9      O    0.33259   0.33259   0.16753   1.000
    O10     O    0.33259   0.16752   0.33259   1.000
    O11     O    0.16744   0.33255   0.16747   1.000
    O12     O    0.33253   0.16748   0.16748   1.000
    O13     O    0.16752   0.33258   0.33259   1.000
    O14     O    0.83257   0.83250   0.66731   1.000
    O15     O    0.66742   0.66739   0.83248   1.000
    O16     O    0.66742   0.83245   0.66740   1.000
    O17     O    0.83257   0.66742   0.83252   1.000
    O18     O    0.66748   0.83250   0.83252   1.000
    O19     O    0.83249   0.66739   0.66742   1.000
loop_
    _geom_bond_atom_site_label_1
    _geom_bond_atom_site_label_2
    _geom_bond_distance
    _geom_bond_site_symmetry_2
    _ccdc_geom_bond_type
    Zr7    O8        2.15481      .   S
    N2     O8        4.36999  1_565   S
    Zr7    O9        2.15440      .   S
    N3     O9        4.36866      .   S
    Zr7    O10       2.15434      .   S
    N4     O10       4.36844  1_565   S
    Zr7    O11       2.15487      .   S
    N5     O11       4.37013  1_556   S
    Zr7    O12       2.15400      .   S
    N0     O12       4.36936  1_566   S
    Zr7    O13       2.15334      .   S
    N1     O13       4.36751      .   S
    N2     O14       4.37007  1_455   S
    Zr6    O14       2.15483      .   S
    N3     O15       4.36866  1_554   S
    Zr6    O15       2.15440      .   S
    N4     O16       4.36889      .   S
    Zr6    O16       2.15452      .   S
    Zr6    O17       2.15473      .   S
    N5     O17       4.36955  1_455   S
    Zr6    O18       2.15390      .   S
    N0     O18       4.36935      .   S
    Zr6    O19       2.15327      .   S
    N1     O19       4.36744  1_455   S
