# CIF file generated by openbabel 2.4.90, see http://openbabel.sf.net
data_I
_chemical_name_common ''
_cell_length_a 18.416
_cell_length_b 18.423
_cell_length_c 18.422
_cell_angle_alpha 60.238
_cell_angle_beta 60.207
_cell_angle_gamma 60.208
_space_group_name_H-M_alt 'P 1'
_space_group_name_Hall 'P 1'
loop_
    _symmetry_equiv_pos_as_xyz
    x,y,z
loop_
    _atom_site_label
    _atom_site_type_symbol
    _atom_site_fract_x
    _atom_site_fract_y
    _atom_site_fract_z
    _atom_site_occupancy
    N0      N    0.50000   0.99999   1.00000   1.000
    N1      N    0.00000   0.49999   0.50001   1.000
    N2      N    0.00001   0.99999   0.49944   1.000
    N3      N    0.50001   0.49999   0.00001   1.000
    N4      N    0.50001   0.99998   0.49998   1.000
    N5      N    0.00001   0.49999   0.99997   1.000
    Zr6     Zr   0.74999   0.74993   0.74996   1.000
    O7      O    0.64886   0.83246   0.83247   1.000
    O8      O    0.64885   0.68594   0.83246   1.000
    O9      O    0.64885   0.83244   0.68596   1.000
    O10     O    0.83250   0.64883   0.83249   1.000
    O11     O    0.83249   0.64883   0.68598   1.000
    O12     O    0.68599   0.64883   0.83249   1.000
    O13     O    0.83250   0.83247   0.64872   1.000
    O14     O    0.68599   0.83247   0.64884   1.000
    O15     O    0.83249   0.68595   0.64886   1.000
    O16     O    0.83263   0.83253   0.68590   1.000
    O17     O    0.83263   0.68601   0.83255   1.000
    O18     O    0.68609   0.83254   0.83256   1.000
    Zr19    Zr   0.25002   0.25004   0.25005   1.000
    O20     O    0.31392   0.16743   0.16743   1.000
    O21     O    0.16738   0.16744   0.31383   1.000
    O22     O    0.16738   0.31396   0.16744   1.000
    O23     O    0.31402   0.35114   0.16752   1.000
    O24     O    0.16752   0.35114   0.31403   1.000
    O25     O    0.16751   0.35114   0.16750   1.000
    O26     O    0.35116   0.31403   0.16754   1.000
    O27     O    0.35116   0.16753   0.31403   1.000
    O28     O    0.35115   0.16752   0.16752   1.000
    O29     O    0.31402   0.16751   0.35115   1.000
    O30     O    0.16751   0.16750   0.35101   1.000
    O31     O    0.16752   0.31402   0.35115   1.000
loop_
    _geom_bond_atom_site_label_1
    _geom_bond_atom_site_label_2
    _geom_bond_distance
    _geom_bond_site_symmetry_2
    _ccdc_geom_bond_type
    Zr6    O7        2.18131      .   S
    N0     O7        4.38253      .   S
    Zr6    O8        2.18151      .   S
    N3     O8        4.38215  1_554   S
    Zr6    O9        2.18165      .   S
    N4     O9        4.38236      .   S
    Zr6    O10       2.18216      .   S
    N5     O10       4.38261  1_455   S
    Zr6    O11       2.18045      .   S
    N1     O11       4.38090  1_455   S
    Zr6    O12       2.18157      .   S
    N3     O12       4.38206  1_554   S
    Zr6    O13       2.18265      .   S
    N2     O13       4.38254  1_455   S
    Zr6    O14       2.18166      .   S
    N4     O14       4.38231      .   S
    Zr6    O15       2.18044      .   S
    N1     O15       4.38091  1_455   S
    Zr6    O16       2.18138      .   S
    N2     O16       4.38452  1_455   S
    Zr6    O17       2.18166      .   S
    N5     O17       4.38343  1_455   S
    Zr6    O18       2.18095      .   S
    N0     O18       4.38314      .   S
    Zr19   O20       2.18108      .   S
    N0     O20       4.38314  1_566   S
    Zr19   O21       2.18215      .   S
    N2     O21       4.38324  1_565   S
    Zr19   O22       2.18182      .   S
    N5     O22       4.38397  1_556   S
    Zr19   O23       2.18156      .   S
    N3     O23       4.38206      .   S
    Zr19   O24       2.18053      .   S
    N1     O24       4.38095      .   S
    Zr19   O25       2.18228      .   S
    N5     O25       4.38322  1_556   S
    Zr19   O26       2.18151      .   S
    N3     O26       4.38215      .   S
    Zr19   O27       2.18145      .   S
    N4     O27       4.38193  1_565   S
    Zr19   O28       2.18139      .   S
    N0     O28       4.38256  1_566   S
    Zr19   O29       2.18150      .   S
    N4     O29       4.38185  1_565   S
    Zr19   O30       2.18182      .   S
    N2     O30       4.38367  1_565   S
    Zr19   O31       2.18050      .   S
    N1     O31       4.38099      .   S
