# CIF file generated by openbabel 2.4.90, see http://openbabel.sf.net
data_I
_chemical_name_common ''
_cell_length_a 15.37
_cell_length_b 20.104
_cell_length_c 17.697
_cell_angle_alpha 90
_cell_angle_beta 89.987
_cell_angle_gamma 89.999
_space_group_name_H-M_alt 'P 1'
_space_group_name_Hall 'P 1'
loop_
    _symmetry_equiv_pos_as_xyz
    x,y,z
loop_
    _atom_site_label
    _atom_site_type_symbol
    _atom_site_fract_x
    _atom_site_fract_y
    _atom_site_fract_z
    _atom_site_occupancy
    Zn0     Zn   0.23775   0.87501   0.73720   1.000
    Zn1     Zn   0.73775   0.37500   0.73720   1.000
    Zn2     Zn   0.73775   0.87501   0.73720   1.000
    Zn3     Zn   0.01147   0.12500   0.23725   1.000
    Zn4     Zn   0.01147   0.62501   0.23725   1.000
    Zn5     Zn   0.51147   0.12500   0.23725   1.000
    Zn6     Zn   0.51147   0.62501   0.23725   1.000
    Zn7     Zn   0.26224   0.12500   0.26279   1.000
    Zn8     Zn   0.26224   0.62501   0.26279   1.000
    Zn9     Zn   0.76224   0.12500   0.26279   1.000
    Zn10    Zn   0.76224   0.62501   0.26279   1.000
    Zn11    Zn   0.48853   0.37500   0.76273   1.000
    Zn12    Zn   0.48853   0.87501   0.76273   1.000
    Zn13    Zn   0.98853   0.37500   0.76273   1.000
    Zn14    Zn   0.98853   0.87501   0.76273   1.000
    Zn15    Zn   0.31494   0.12500   0.92159   1.000
    Zn16    Zn   0.31494   0.62501   0.92159   1.000
    Zn17    Zn   0.81494   0.12500   0.92159   1.000
    Zn18    Zn   0.81494   0.62501   0.92159   1.000
    Zn19    Zn   0.43619   0.37500   0.42169   1.000
    Zn20    Zn   0.43619   0.87501   0.42169   1.000
    Zn21    Zn   0.93619   0.37500   0.42169   1.000
    Zn22    Zn   0.93619   0.87501   0.42169   1.000
    Zn23    Zn   0.18506   0.37500   0.07840   1.000
    Zn24    Zn   0.18506   0.87501   0.07840   1.000
    Zn25    Zn   0.68506   0.37500   0.07840   1.000
    Zn26    Zn   0.68506   0.87501   0.07840   1.000
    Zn27    Zn   0.06380   0.12500   0.57830   1.000
    Zn28    Zn   0.06381   0.62501   0.57830   1.000
    Zn29    Zn   0.56380   0.12500   0.57830   1.000
    Zn30    Zn   0.56381   0.62501   0.57830   1.000
    Zn31    Zn   0.23775   0.37500   0.73720   1.000
    Cl32    Cl   0.16643   0.12501   0.92698   1.000
    Cl33    Cl   0.16643   0.62501   0.92698   1.000
    Cl34    Cl   0.66643   0.12501   0.92698   1.000
    Cl35    Cl   0.66643   0.62501   0.92698   1.000
    Cl36    Cl   0.08449   0.37500   0.42706   1.000
    Cl37    Cl   0.08450   0.87501   0.42706   1.000
    Cl38    Cl   0.58449   0.37500   0.42706   1.000
    Cl39    Cl   0.58450   0.87501   0.42706   1.000
    Cl40    Cl   0.33356   0.37500   0.07301   1.000
    Cl41    Cl   0.33357   0.87501   0.07301   1.000
    Cl42    Cl   0.83357   0.37500   0.07301   1.000
    Cl43    Cl   0.83357   0.87501   0.07301   1.000
    Cl44    Cl   0.41550   0.12501   0.57292   1.000
    Cl45    Cl   0.41550   0.62501   0.57292   1.000
    Cl46    Cl   0.91550   0.12501   0.57292   1.000
    Cl47    Cl   0.91550   0.62501   0.57292   1.000
loop_
    _geom_bond_atom_site_label_1
    _geom_bond_atom_site_label_2
    _geom_bond_distance
    _geom_bond_site_symmetry_2
    _ccdc_geom_bond_type
    Cl43   Zn26      2.28455      .   S
    Cl42   Zn25      2.28457      .   S
    Cl41   Zn24      2.28457      .   S
    Cl40   Zn23      2.28455      .   S
    Zn22   Cl37      2.28143  1_655   S
    Zn19   Cl38      2.28145      .   S
    Zn20   Cl39      2.28145      .   S
    Zn21   Cl36      2.28143  1_655   S
    Cl47   Zn28      2.28144  1_655   S
    Cl44   Zn29      2.28146      .   S
    Cl45   Zn30      2.28146      .   S
    Cl46   Zn27      2.28144  1_655   S
    Zn18   Cl35      2.28457      .   S
    Zn17   Cl34      2.28457      .   S
    Zn16   Cl33      2.28455      .   S
    Zn15   Cl32      2.28455      .   S
