# CIF file generated by openbabel 2.4.90, see http://openbabel.sf.net
data_I
_chemical_name_common ''
_cell_length_a 10.1355
_cell_length_b 11.566
_cell_length_c 14.801
_cell_angle_alpha 91.189
_cell_angle_beta 90.015
_cell_angle_gamma 90.008
_space_group_name_H-M_alt 'P 1'
_space_group_name_Hall 'P 1'
loop_
    _symmetry_equiv_pos_as_xyz
    x,y,z
loop_
    _atom_site_label
    _atom_site_type_symbol
    _atom_site_fract_x
    _atom_site_fract_y
    _atom_site_fract_z
    _atom_site_occupancy
    H0      H    0.24220   0.85680   0.37300   1.000
    H1      H    0.94841   0.47453   0.27162   1.000
    H2      H    0.38925   0.56251   0.04316   1.000
    H3      H    0.79524   0.98229   0.23434   1.000
    H4      H    0.83743   0.69022   0.92108   1.000
    H5      H    0.29098   0.99961   0.00966   1.000
    H6      H    0.74212   0.64319   0.12711   1.000
    H7      H    0.44999   0.02555   0.22975   1.000
    H8      H    0.88929   0.93771   0.45678   1.000
    H9      H    0.29525   0.51765   0.26566   1.000
    H10     H    0.33726   0.80959   0.57896   1.000
    H11     H    0.79094   0.50043   0.49057   1.000
    H12     H    0.75742   0.14341   0.62772   1.000
    H13     H    0.05144   0.52541   0.72849   1.000
    H14     H    0.61069   0.43762   0.95742   1.000
    H15     H    0.20499   0.01778   0.76587   1.000
    H16     H    0.16248   0.30977   0.07913   1.000
    H17     H    0.70956   0.99998   0.99107   1.000
    H18     H    0.25727   0.35725   0.87323   1.000
    H19     H    0.55170   0.97434   0.77178   1.000
    H20     H    0.11064   0.06258   0.54324   1.000
    H21     H    0.70483   0.48284   0.73489   1.000
    H22     H    0.66297   0.18992   0.42215   1.000
    H23     H    0.20906   0.49951   0.50982   1.000
    C24     C    0.16078   0.82440   0.32996   1.000
    C25     C    0.97525   0.51926   0.20892   1.000
    C26     C    0.28189   0.57655   0.05089   1.000
    C27     C    0.86665   0.95279   0.18217   1.000
    C28     C    0.89832   0.74351   0.96757   1.000
    C29     C    0.27290   0.92756   0.05566   1.000
    C30     C    0.66072   0.67558   0.17014   1.000
    C31     C    0.47521   0.98077   0.29131   1.000
    C32     C    0.78194   0.92350   0.44913   1.000
    C33     C    0.36664   0.54716   0.31787   1.000
    C34     C    0.39828   0.75636   0.53255   1.000
    C35     C    0.77285   0.57242   0.44452   1.000
    C36     C    0.83896   0.17572   0.67070   1.000
    C37     C    0.02465   0.48070   0.79120   1.000
    C38     C    0.71805   0.42358   0.94965   1.000
    C39     C    0.13347   0.04719   0.81800   1.000
    C40     C    0.10162   0.25652   0.03261   1.000
    C41     C    0.72722   0.07214   0.94512   1.000
    C42     C    0.33871   0.32451   0.83039   1.000
    C43     C    0.52481   0.01955   0.70946   1.000
    C44     C    0.21801   0.07659   0.55105   1.000
    C45     C    0.63300   0.45292   0.68309   1.000
    C46     C    0.60196   0.24343   0.46837   1.000
    C47     C    0.22721   0.42757   0.55591   1.000
    O48     O    0.18942   0.80076   0.24708   1.000
    O49     O    0.04928   0.81498   0.36647   1.000
    O50     O    0.97833   0.63044   0.21490   1.000
    O51     O    0.00004   0.45946   0.13969   1.000
    O52     O    0.24815   0.65067   0.11287   1.000
    O53     O    0.20598   0.51961   0.00000   1.000
    O54     O    0.91211   0.85005   0.19194   1.000
    O55     O    0.89398   0.02044   0.12099   1.000
    O56     O    0.97286   0.68571   0.02138   1.000
    O57     O    0.88833   0.85090   0.96439   1.000
    O58     O    0.15159   0.89564   0.06287   1.000
    O59     O    0.37085   0.88576   0.09526   1.000
    O60     O    0.68936   0.69922   0.25302   1.000
    O61     O    0.54922   0.68500   0.13359   1.000
    O62     O    0.47840   0.86960   0.28521   1.000
    O63     O    0.50031   0.04038   0.36192   1.000
    O64     O    0.74819   0.84928   0.38718   1.000
    O65     O    0.70603   0.98034   0.49997   1.000
    O66     O    0.41213   0.64992   0.30811   1.000
    O67     O    0.39388   0.47865   0.37946   1.000
    O68     O    0.47285   0.81425   0.47882   1.000
    O69     O    0.38837   0.64896   0.53570   1.000
    O70     O    0.65152   0.60428   0.43725   1.000
    O71     O    0.87079   0.61426   0.40495   1.000
    O72     O    0.81046   0.19936   0.75358   1.000
    O73     O    0.95041   0.18504   0.63405   1.000
    O74     O    0.02151   0.36952   0.78521   1.000
    O75     O    0.99991   0.54052   0.86046   1.000
    O76     O    0.75179   0.34918   0.88786   1.000
    O77     O    0.79404   0.48077   0.00019   1.000
    O78     O    0.08779   0.14985   0.80817   1.000
    O79     O    0.10612   0.97856   0.87948   1.000
    O80     O    0.02710   0.31435   0.97881   1.000
    O81     O    0.11161   0.14913   0.03570   1.000
    O82     O    0.84840   0.10413   0.93740   1.000
    O83     O    0.62882   0.11402   0.90603   1.000
    O84     O    0.31030   0.30067   0.74753   1.000
    O85     O    0.45003   0.31495   0.86719   1.000
    O86     O    0.52182   0.13069   0.71551   1.000
    O87     O    0.49998   0.95957   0.63986   1.000
    O88     O    0.25179   0.15071   0.61304   1.000
    O89     O    0.29391   0.01960   0.50027   1.000
    O90     O    0.58667   0.35072   0.69405   1.000
    O91     O    0.60612   0.52065   0.62086   1.000
    O92     O    0.52780   0.18582   0.52256   1.000
    O93     O    0.61156   0.35079   0.46455   1.000
    O94     O    0.34848   0.39553   0.56298   1.000
    O95     O    0.12933   0.38599   0.59573   1.000
loop_
    _geom_bond_atom_site_label_1
    _geom_bond_atom_site_label_2
    _geom_bond_distance
    _geom_bond_site_symmetry_2
    _ccdc_geom_bond_type
    O53    C26       1.25380      .   S
    O77    C38       1.25273  1_554   S
    H5     C29       1.10225      .   S
    O56    C28       1.29382  1_554   S
    C40    O81       1.24797      .   S
    C40    H16       1.10282      .   S
    C40    O80       1.29373  1_554   S
    H2     C26       1.10579      .   S
    C26    O52       1.28888      .   S
    C29    O58       1.28888      .   S
    C29    O59       1.25477      .   S
    O55    C27       1.24037  1_545   S
    H6     C30       1.10327      .   S
    O61    C30       1.25856      .   S
    O51    C25       1.24981  1_455   S
    C30    O60       1.28440      .   S
    C27    O54       1.28553      .   S
    C27    H3        1.10722      .   S
    C25    O50       1.28751      .   S
    C25    H1        1.10585      .   S
    H7     C31       1.08783  1_545   S
    O48    C24       1.28446      .   S
    H9     C33       1.10725      .   S
    O62    C31       1.28752      .   S
    C31    O63       1.26570  1_565   S
    O66    C33       1.28566      .   S
    C33    O67       1.25099      .   S
    C24    O49       1.25851      .   S
    C24    H0        1.10325      .   S
    O64    C32       1.28900      .   S
    O71    C35       1.25477      .   S
    H22    C46       1.10280      .   S
    O70    C35       1.28897      .   S
    C35    H11       1.10227      .   S
    C32    H8        1.10580      .   S
    C32    O65       1.25317      .   S
    O93    C46       1.24799      .   S
    C46    O92       1.29413      .   S
    O68    C34       1.29395      .   S
    O89    C44       1.25333      .   S
    H23    C47       1.10230      .   S
    C34    O69       1.24802      .   S
    C34    H10       1.10284      .   S
    H20    C44       1.10582      .   S
    C44    O88       1.28888      .   S
    C47    O94       1.28875      .   S
    C47    O95       1.25485      .   S
    O91    C45       1.25141      .   S
    H12    C36       1.10322      .   S
    O73    C36       1.25883      .   S
    O87    C43       1.25543  1_565   S
    C36    O72       1.28424      .   S
    C45    O90       1.28532      .   S
    C45    H21       1.10732      .   S
    C43    O86       1.28709      .   S
    C43    H19       1.10380  1_545   S
    H13    C37       1.10580      .   S
    O84    C42       1.28413      .   S
    H15    C39       1.10723      .   S
    O74    C37       1.28746      .   S
    C37    O75       1.25032  1_455   S
    O78    C39       1.28555      .   S
    C39    O79       1.25092  1_545   S
    C42    O85       1.25860      .   S
    C42    H18       1.10319      .   S
    O76    C38       1.28897      .   S
    O83    C41       1.25523      .   S
    H4     C28       1.10281      .   S
    O82    C41       1.28846      .   S
    C41    H17       1.10214  1_545   S
    C38    H14       1.10580      .   S
    O57    C28       1.24799      .   S
