# CIF file generated by openbabel 2.4.90, see http://openbabel.sf.net
data_I
_chemical_name_common ''
_cell_length_a 10.1355
_cell_length_b 11.566
_cell_length_c 14.801
_cell_angle_alpha 91.189
_cell_angle_beta 90.015
_cell_angle_gamma 90.008
_space_group_name_H-M_alt 'P 1'
_space_group_name_Hall 'P 1'
loop_
    _symmetry_equiv_pos_as_xyz
    x,y,z
loop_
    _atom_site_label
    _atom_site_type_symbol
    _atom_site_fract_x
    _atom_site_fract_y
    _atom_site_fract_z
    _atom_site_occupancy
    N0      N    0.72850   0.07257   0.94491   1.000
    N1      N    0.02438   0.47904   0.79134   1.000
    N2      N    0.13310   0.04834   0.81788   1.000
    N3      N    0.28132   0.57733   0.05173   1.000
    N4      N    0.77152   0.57285   0.44432   1.000
    N5      N    0.63265   0.45178   0.68322   1.000
    N6      N    0.10070   0.25744   0.03156   1.000
    N7      N    0.52458   0.02104   0.70915   1.000
    N8      N    0.36697   0.54834   0.31778   1.000
    N9      N    0.78136   0.92271   0.44827   1.000
    N10     N    0.39919   0.75729   0.53151   1.000
    N11     N    0.83931   0.17588   0.67151   1.000
    N12     N    0.86699   0.95139   0.18236   1.000
    N13     N    0.66036   0.67575   0.17097   1.000
    N14     N    0.97551   0.52092   0.20878   1.000
    N15     N    0.71864   0.42279   0.94878   1.000
    N16     N    0.22852   0.42715   0.55611   1.000
    N17     N    0.47598   0.97907   0.29205   1.000
    N18     N    0.27158   0.92714   0.05586   1.000
    N19     N    0.16042   0.82424   0.32913   1.000
    N20     N    0.60107   0.24249   0.46941   1.000
    N21     N    0.89924   0.74259   0.96860   1.000
    N22     N    0.33908   0.32435   0.82958   1.000
    N23     N    0.21859   0.07737   0.55190   1.000
    Zr24    Zr   0.61716   0.24109   0.81131   1.000
    O25     O    0.52675   0.27114   0.82286   1.000
    O26     O    0.65936   0.30003   0.85525   1.000
    O27     O    0.69686   0.21957   0.76914   1.000
    O28     O    0.61722   0.30747   0.76463   1.000
    O29     O    0.58210   0.17228   0.77379   1.000
    O30     O    0.64645   0.18308   0.85655   1.000
    Zr31    Zr   0.42809   0.25501   0.63241   1.000
    O32     O    0.39111   0.27805   0.69610   1.000
    O33     O    0.35367   0.19756   0.60986   1.000
    O34     O    0.49905   0.31617   0.65282   1.000
    O35     O    0.48380   0.24323   0.57793   1.000
    O36     O    0.36824   0.31561   0.60466   1.000
    O37     O    0.46393   0.18098   0.66199   1.000
    Zr38    Zr   0.00007   0.50002   0.00005   1.000
    O39     O    0.97146   0.58387   0.99485   1.000
    O40     O    0.99392   0.50017   0.06969   1.000
    O41     O    0.00613   0.49983   0.93042   1.000
    O42     O    0.90396   0.47830   0.98725   1.000
    O43     O    0.09612   0.52179   0.01296   1.000
    O44     O    0.02860   0.41616   0.00527   1.000
    Zr45    Zr   0.88247   0.74107   0.30929   1.000
    O46     O    0.80280   0.71951   0.26768   1.000
    O47     O    0.84041   0.80000   0.35377   1.000
    O48     O    0.88231   0.80727   0.26289   1.000
    O49     O    0.91771   0.67220   0.27236   1.000
    O50     O    0.97281   0.77110   0.32140   1.000
    O51     O    0.85327   0.68316   0.35501   1.000
    Zr52    Zr   0.11747   0.25880   0.69087   1.000
    O53     O    0.14671   0.31678   0.64529   1.000
    O54     O    0.19697   0.28042   0.73263   1.000
    O55     O    0.15954   0.19993   0.64640   1.000
    O56     O    0.08220   0.32770   0.72778   1.000
    O57     O    0.11767   0.19256   0.73728   1.000
    O58     O    0.02705   0.22885   0.67893   1.000
    Zr59    Zr   0.00000   0.99986   0.00015   1.000
    O60     O    0.96085   0.91692   0.98779   1.000
    O61     O    0.08684   0.96865   0.02192   1.000
    O62     O    0.95350   0.99032   0.06081   1.000
    O63     O    0.04654   0.00932   0.93950   1.000
    O64     O    0.03913   0.08292   0.01245   1.000
    O65     O    0.91318   0.03107   0.97850   1.000
    Zr66    Zr   0.50002   0.49990   0.50011   1.000
    O67     O    0.45349   0.50936   0.43945   1.000
    O68     O    0.46086   0.58288   0.51241   1.000
    O69     O    0.41320   0.46867   0.52197   1.000
    O70     O    0.53923   0.41691   0.48799   1.000
    O71     O    0.54644   0.49047   0.56098   1.000
    O72     O    0.58683   0.53119   0.47831   1.000
    Zr73    Zr   0.92810   0.24510   0.86843   1.000
    O74     O    0.85370   0.30253   0.89095   1.000
    O75     O    0.86824   0.18435   0.89617   1.000
    O76     O    0.89120   0.22208   0.80484   1.000
    O77     O    0.98362   0.25684   0.92301   1.000
    O78     O    0.99931   0.18401   0.84826   1.000
    O79     O    0.96384   0.31914   0.83876   1.000
    Zr80    Zr   0.49993   0.00002   0.50060   1.000
    O81     O    0.40384   0.02180   0.51338   1.000
    O82     O    0.52870   0.08386   0.49554   1.000
    O83     O    0.50610   0.00022   0.57014   1.000
    O84     O    0.59605   0.97823   0.48744   1.000
    O85     O    0.47136   0.91611   0.50560   1.000
    O86     O    0.49399   0.99983   0.43112   1.000
    Zr87    Zr   0.07203   0.75484   0.13178   1.000
    O88     O    0.03619   0.68081   0.16142   1.000
    O89     O    0.10880   0.77793   0.19553   1.000
    O90     O    0.01644   0.74314   0.07719   1.000
    O91     O    0.13186   0.81552   0.10419   1.000
    O92     O    0.00078   0.81588   0.15195   1.000
    O93     O    0.14637   0.69744   0.10941   1.000
    Zr94    Zr   0.57203   0.74515   0.36839   1.000
    O95     O    0.60878   0.72206   0.30462   1.000
    O96     O    0.53631   0.81919   0.33891   1.000
    O97     O    0.64638   0.80256   0.39071   1.000
    O98     O    0.50078   0.68404   0.34820   1.000
    O99     O    0.51642   0.75682   0.42297   1.000
    O100    O    0.63184   0.68447   0.39598   1.000
    Zr101   Zr   0.38250   0.75888   0.19079   1.000
    O102    O    0.47280   0.72886   0.17869   1.000
    O103    O    0.30285   0.78046   0.23241   1.000
    O104    O    0.41786   0.82777   0.22791   1.000
    O105    O    0.35331   0.81681   0.14512   1.000
    O106    O    0.34041   0.69997   0.14629   1.000
    O107    O    0.38232   0.69263   0.23720   1.000
loop_
    _geom_bond_atom_site_label_1
    _geom_bond_atom_site_label_2
    _geom_bond_distance
    _geom_bond_site_symmetry_2
    _ccdc_geom_bond_type
    Zr24   O25       0.99371      .   S
    N22    O25       2.00117      .   S
    Zr24   O26       1.02561      .   S
    N15    O26       2.05217      .   S
    Zr24   O27       1.04777      .   S
    N11    O27       2.09739      .   S
    Zr24   O28       1.04341      .   S
    N5     O28       2.08466      .   S
    Zr24   O29       1.02445      .   S
    N7     O29       2.06036      .   S
    Zr24   O30       1.00266      .   S
    N0     O30       2.02599      .   S
    Zr31   O32       1.04386      .   S
    N22    O32       2.10360      .   S
    Zr31   O33       1.05463      .   S
    N23    O33       2.11957      .   S
    Zr31   O34       1.04869      .   S
    N5     O34       2.11334      .   S
    Zr31   O35       0.99166      .   S
    N20    O35       1.99838      .   S
    Zr31   O36       1.01972      .   S
    N16    O36       2.05538      .   S
    Zr31   O37       1.03551      .   S
    N7     O37       2.08351      .   S
    Zr38   O39       1.01674  1_454   S
    N21    O39       2.02148      .   S
    Zr38   O40       1.03257  1_455   S
    N14    O40       2.07617      .   S
    Zr38   O41       1.03233  1_554   S
    N1     O41       2.07592      .   S
    Zr38   O42       1.02260  1_454   S
    N15    O42       2.06113      .   S
    Zr38   O43       1.02255      .   S
    N3     O43       2.06134      .   S
    Zr38   O44       1.01657      .   S
    N6     O44       2.02124      .   S
    Zr45   O46       1.04253      .   S
    N13    O46       2.08763      .   S
    Zr45   O47       1.03026      .   S
    N9     O47       2.06075      .   S
    Zr45   O48       1.03914      .   S
    N12    O48       2.07502      .   S
    Zr45   O49       1.02120      .   S
    N14    O49       2.05489      .   S
    Zr45   O50       0.99417      .   S
    N19    O50       2.00082  1_455   S
    Zr45   O51       1.00638      .   S
    N4     O51       2.03280      .   S
    Zr52   O53       1.00582      .   S
    N16    O53       2.03205      .   S
    Zr52   O54       1.04271      .   S
    N22    O54       2.08813      .   S
    Zr52   O55       1.02969      .   S
    N23    O55       2.05965      .   S
    Zr52   O56       1.02147      .   S
    N1     O56       2.05539      .   S
    Zr52   O57       1.03952      .   S
    N2     O57       2.07664      .   S
    Zr52   O58       0.99418      .   S
    N11    O58       2.00117  1_655   S
    Zr59   O60       1.05058  1_454   S
    N21    O60       2.12422      .   S
    Zr59   O61       1.00678      .   S
    N18    O61       1.99964      .   S
    Zr59   O62       1.02211  1_455   S
    N12    O62       2.05975      .   S
    Zr59   O63       1.02206  1_564   S
    N2     O63       2.06108      .   S
    Zr59   O64       1.05153  1_565   S
    N6     O64       2.12601      .   S
    Zr59   O65       1.00608  1_464   S
    N0     O65       1.99767      .   S
    Zr66   O67       1.02199      .   S
    N8     O67       2.06113      .   S
    Zr66   O68       1.05103      .   S
    N10    O68       2.12518      .   S
    Zr66   O69       1.00717      .   S
    N16    O69       2.00003      .   S
    Zr66   O70       1.05093      .   S
    N20    O70       2.12501      .   S
    Zr66   O71       1.02416      .   S
    N5     O71       2.06643      .   S
    Zr66   O72       1.00706      .   S
    N4     O72       1.99989      .   S
    Zr73   O74       1.05455      .   S
    N15    O74       2.11960      .   S
    Zr73   O75       1.02101      .   S
    N0     O75       2.05824      .   S
    Zr73   O76       1.04206      .   S
    N11    O76       2.10048      .   S
    Zr73   O77       0.99147      .   S
    N6     O77       1.99705  1_454   S
    Zr73   O78       1.04925      .   S
    N2     O78       2.11530  1_455   S
    Zr73   O79       1.03587      .   S
    N1     O79       2.08397  1_455   S
    Zr80   O81       1.02272      .   S
    N23    O81       2.06137      .   S
    Zr80   O82       1.01684      .   S
    N20    O82       2.02069      .   S
    Zr80   O83       1.03120      .   S
    N7     O83       2.07498      .   S
    Zr80   O84       1.02407  1_545   S
    N9     O84       2.06440      .   S
    Zr80   O85       1.01685  1_545   S
    N10    O85       2.02126      .   S
    Zr80   O86       1.02996  1_545   S
    N17    O86       2.07545      .   S
    Zr87   O88       1.03594      .   S
    N14    O88       2.08403  1_655   S
    Zr87   O89       1.04395      .   S
    N19    O89       2.10380      .   S
    Zr87   O90       0.99198      .   S
    N21    O90       1.99814  1_656   S
    Zr87   O91       1.01927      .   S
    N18    O91       2.05477      .   S
    Zr87   O92       1.04902      .   S
    N12    O92       2.11411  1_655   S
    Zr87   O93       1.05321      .   S
    N3     O93       2.11694      .   S
    Zr94   O95       1.04446      .   S
    N13    O95       2.10472      .   S
    Zr94   O96       1.03453      .   S
    N17    O96       2.08041      .   S
    Zr94   O97       1.05287      .   S
    N9     O97       2.11621      .   S
    Zr94   O98       1.04942      .   S
    N8     O98       2.11544      .   S
    Zr94   O99       0.99208      .   S
    N10    O99       1.99822      .   S
    Zr94   O100      1.01920      .   S
    N4     O100      2.05459      .   S
    Zr101  O102      0.99397      .   S
    N13    O102      2.00038      .   S
    Zr101  O103      1.04283      .   S
    N19    O103      2.08821      .   S
    Zr101  O104      1.02306      .   S
    N17    O104      2.05938      .   S
    Zr101  O105      1.00603      .   S
    N18    O105      2.03217      .   S
    Zr101  O106      1.03024      .   S
    N3     O106      2.06066      .   S
    Zr101  O107      1.03968      .   S
    N8     O107      2.07697      .   S
