# CIF file generated by openbabel 2.4.90, see http://openbabel.sf.net
data_I
_chemical_name_common ''
_cell_length_a 17.288
_cell_length_b 17.276
_cell_length_c 17.335
_cell_angle_alpha 85.834
_cell_angle_beta 86.336
_cell_angle_gamma 86.54
_space_group_name_H-M_alt 'P 1'
_space_group_name_Hall 'P 1'
loop_
    _symmetry_equiv_pos_as_xyz
    x,y,z
loop_
    _atom_site_label
    _atom_site_type_symbol
    _atom_site_fract_x
    _atom_site_fract_y
    _atom_site_fract_z
    _atom_site_occupancy
    Zr0     Zr   0.88042   0.88706   0.74724   1.000
    Zr1     Zr   0.74958   0.88050   0.88660   1.000
    Zr2     Zr   0.88629   0.74980   0.88283   1.000
    Zr3     Zr   0.75645   0.75721   0.75664   1.000
    Zr4     Zr   0.11956   0.11296   0.25275   1.000
    Zr5     Zr   0.25041   0.11952   0.11339   1.000
    Zr6     Zr   0.11371   0.25023   0.11717   1.000
    Zr7     Zr   0.24353   0.24283   0.24335   1.000
    N8      N    0.31525   0.82453   0.85668   1.000
    O9      O    0.50796   0.79713   0.81203   1.000
    O10     O    0.50477   0.85011   0.86744   1.000
    O11     O    0.12534   0.85391   0.80851   1.000
    O12     O    0.12805   0.79130   0.86142   1.000
    N13     N    0.85748   0.31611   0.82238   1.000
    O14     O    0.81282   0.50883   0.79536   1.000
    O15     O    0.80956   0.12596   0.85206   1.000
    O16     O    0.86713   0.50536   0.85033   1.000
    O17     O    0.86055   0.12893   0.78871   1.000
    N18     N    0.14251   0.68392   0.17752   1.000
    O19     O    0.19042   0.87407   0.14788   1.000
    O20     O    0.13286   0.49467   0.14962   1.000
    O21     O    0.18716   0.49120   0.20459   1.000
    O22     O    0.13943   0.87109   0.21124   1.000
    N23     N    0.68475   0.17555   0.14324   1.000
    O24     O    0.87195   0.20876   0.13853   1.000
    O25     O    0.87465   0.14615   0.19145   1.000
    O26     O    0.49204   0.20302   0.18781   1.000
    O27     O    0.49524   0.14992   0.13251   1.000
    N28     N    0.82317   0.85700   0.31517   1.000
    O29     O    0.84997   0.86772   0.50365   1.000
    O30     O    0.85242   0.80926   0.12647   1.000
    O31     O    0.79005   0.86073   0.12833   1.000
    O32     O    0.79578   0.81298   0.50800   1.000
    N33     N    0.17677   0.14302   0.68479   1.000
    O34     O    0.20419   0.18704   0.49198   1.000
    O35     O    0.14754   0.19076   0.87349   1.000
    O36     O    0.14999   0.13230   0.49633   1.000
    O37     O    0.20993   0.13932   0.87165   1.000
    N38     N    0.81841   0.81837   0.81806   1.000
    O39     O    0.80120   0.83390   0.83519   1.000
    O40     O    0.83391   0.83554   0.80035   1.000
    O41     O    0.83538   0.80123   0.83425   1.000
    O42     O    0.80292   0.80308   0.80270   1.000
    N43     N    0.18158   0.18164   0.18194   1.000
    O44     O    0.19879   0.16611   0.16480   1.000
    O45     O    0.16608   0.16447   0.19964   1.000
    O46     O    0.16461   0.19879   0.16575   1.000
    O47     O    0.19707   0.19694   0.19729   1.000
loop_
    _geom_bond_atom_site_label_1
    _geom_bond_atom_site_label_2
    _geom_bond_distance
    _geom_bond_site_symmetry_2
    _ccdc_geom_bond_type
    N8     O9        3.38451      .   S
    Zr3    O9        4.36617      .   S
    N8     O10       3.35101      .   S
    Zr1    O10       4.33269      .   S
    N8     O11       3.43833      .   S
    Zr0    O11       4.42478  1_655   S
    N8     O12       3.31565      .   S
    Zr2    O12       4.27152  1_655   S
    N13    O14       3.37781      .   S
    Zr3    O14       4.35589      .   S
    N13    O15       3.43090      .   S
    Zr1    O15       4.41567  1_565   S
    N13    O16       3.35534      .   S
    Zr2    O16       4.33575      .   S
    N13    O17       3.32416      .   S
    Zr0    O17       4.28097  1_565   S
    N18    O19       3.43084      .   S
    Zr5    O19       4.41565  1_545   S
    N18    O20       3.35513      .   S
    Zr6    O20       4.33554      .   S
    N18    O21       3.37778      .   S
    Zr7    O21       4.35589      .   S
    N18    O22       3.32433      .   S
    Zr4    O22       4.28109  1_545   S
    N23    O24       3.31566      .   S
    Zr6    O24       4.27131  1_455   S
    N23    O25       3.43831      .   S
    Zr4    O25       4.42476  1_455   S
    N23    O26       3.38462      .   S
    Zr7    O26       4.36661      .   S
    N23    O27       3.35113      .   S
    Zr5    O27       4.33271      .   S
    N28    O29       3.34905      .   S
    Zr0    O29       4.32774      .   S
    N28    O30       3.43019      .   S
    Zr2    O30       4.41338  1_556   S
    N28    O31       3.32034      .   S
    Zr1    O31       4.27824  1_556   S
    N28    O32       3.38344      .   S
    Zr3    O32       4.36687      .   S
    N33    O34       3.38330      .   S
    Zr7    O34       4.36669      .   S
    N33    O35       3.43014      .   S
    Zr6    O35       4.41403  1_554   S
    N33    O36       3.34869      .   S
    Zr4    O36       4.32749      .   S
    N33    O37       3.32080      .   S
    Zr5    O37       4.27851  1_554   S
    N38    O39       0.48927      .   S
    Zr1    O39       1.46782      .   S
    N38    O40       0.48980      .   S
    Zr0    O40       1.46939      .   S
    N38    O41       0.49042      .   S
    Zr2    O41       1.47126      .   S
    N38    O42       0.49010      .   S
    Zr3    O42       1.47031      .   S
    N43    O44       0.48928      .   S
    Zr5    O44       1.46784      .   S
    N43    O45       0.48978      .   S
    Zr4    O45       1.46933      .   S
    N43    O46       0.49043      .   S
    Zr6    O46       1.47128      .   S
    N43    O47       0.49012      .   S
    Zr7    O47       1.47036      .   S
