# CIF file generated by openbabel 2.4.90, see http://openbabel.sf.net
data_I
_chemical_name_common ''
_cell_length_a 11.671
_cell_length_b 12.279
_cell_length_c 14.179
_cell_angle_alpha 90.002
_cell_angle_beta 127.997
_cell_angle_gamma 89.983
_space_group_name_H-M_alt 'P 1'
_space_group_name_Hall 'P 1'
loop_
    _symmetry_equiv_pos_as_xyz
    x,y,z
loop_
    _atom_site_label
    _atom_site_type_symbol
    _atom_site_fract_x
    _atom_site_fract_y
    _atom_site_fract_z
    _atom_site_occupancy
    Cd0     Cd   0.49997   0.49994   0.70000   1.000
    H1      H    0.84475   0.04650   0.42843   1.000
    H2      H    0.59173   0.02060   0.88297   1.000
    H3      H    0.54514   0.83016   0.11326   1.000
    H4      H    0.75064   0.07849   0.53410   1.000
    H5      H    0.77542   0.06873   0.72222   1.000
    H6      H    0.18296   0.92707   0.90725   1.000
    H7      H    0.17904   0.93227   0.73250   1.000
    H8      H    0.65516   0.54641   0.57165   1.000
    H9      H    0.90807   0.52062   0.11703   1.000
    H10     H    0.95495   0.33018   0.88687   1.000
    H11     H    0.74925   0.57839   0.46590   1.000
    H12     H    0.72448   0.56863   0.27785   1.000
    H13     H    0.31709   0.42704   0.09285   1.000
    H14     H    0.32100   0.43225   0.26759   1.000
    H15     H    0.15517   0.95343   0.57163   1.000
    H16     H    0.40819   0.97929   0.11710   1.000
    H17     H    0.45478   0.16974   0.88681   1.000
    H18     H    0.34476   0.45353   0.42840   1.000
    H19     H    0.09185   0.47927   0.88303   1.000
    H20     H    0.00000   0.66972   0.11319   1.000
    C21     C    0.55136   0.01065   0.93435   1.000
    C22     C    0.67568   0.72423   0.04644   1.000
    C23     C    0.74405   0.84464   0.95589   1.000
    Cd24    Cd   0.99999   0.99995   0.30000   1.000
    C25     C    0.52581   0.90450   0.06326   1.000
    C26     C    0.84861   0.04408   0.61526   1.000
    C27     C    0.96266   0.00000   0.61525   1.000
    C28     C    0.86085   0.03851   0.71000   1.000
    C29     C    0.08850   0.95973   0.82284   1.000
    C30     C    0.66632   0.82524   0.99880   1.000
    C31     C    0.08524   0.96303   0.72353   1.000
    C32     C    0.57951   0.91325   0.99784   1.000
    C33     C    0.94869   0.01421   0.50597   1.000
    C34     C    0.94850   0.51065   0.06568   1.000
    C35     C    0.82426   0.22430   0.95360   1.000
    C36     C    0.75593   0.34467   0.04420   1.000
    C37     C    0.97422   0.40452   0.93684   1.000
    C38     C    0.65130   0.54400   0.38482   1.000
    C39     C    0.53728   0.50630   0.38483   1.000
    C40     C    0.63907   0.53843   0.28100   1.000
    C41     C    0.41153   0.45970   0.17725   1.000
    C42     C    0.83364   0.32528   0.00121   1.000
    C43     C    0.41478   0.46299   0.27656   1.000
    C44     C    0.92039   0.41327   0.00200   1.000
    C45     C    0.55122   0.51417   0.49410   1.000
    C46     C    0.44857   0.98925   0.06572   1.000
    C47     C    0.32425   0.27566   0.95363   1.000
    C48     C    0.25588   0.15525   0.04417   1.000
    C49     C    0.47412   0.09539   0.93681   1.000
    C50     C    0.03726   0.99357   0.38480   1.000
    C51     C    0.13907   0.96140   0.28107   1.000
    C52     C    0.33361   0.17466   0.00122   1.000
    C53     C    0.91468   0.03689   0.27653   1.000
    C54     C    0.42042   0.08664   0.00222   1.000
    C55     C    0.05123   0.98572   0.49409   1.000
    C56     C    0.05142   0.48925   0.93437   1.000
    C57     C    0.17567   0.77559   0.04646   1.000
    C58     C    0.24398   0.65523   0.95586   1.000
    C59     C    0.00000   0.59538   0.06321   1.000
    C60     C    0.46265   0.49363   0.61522   1.000
    C61     C    0.36086   0.46148   0.71897   1.000
    C62     C    0.16628   0.67462   0.99884   1.000
    C63     C    0.58515   0.53694   0.72349   1.000
    C64     C    0.07953   0.58662   0.99786   1.000
    C65     C    0.44871   0.48577   0.50595   1.000
    N66     N    0.97914   0.99705   0.82208   1.000
    N67     N    0.80701   0.86849   0.91803   1.000
    N68     N    0.67997   0.63950   0.08858   1.000
    N69     N    0.52082   0.49700   0.17800   1.000
    N70     N    0.69296   0.36847   0.08208   1.000
    N71     N    0.81990   0.13956   0.91145   1.000
    N72     N    0.19291   0.13141   0.08203   1.000
    N73     N    0.31997   0.36040   0.91149   1.000
    N74     N    0.30695   0.63142   0.91798   1.000
    N75     N    0.18002   0.86033   0.08862   1.000
loop_
    _geom_bond_atom_site_label_1
    _geom_bond_atom_site_label_2
    _geom_bond_distance
    _geom_bond_site_symmetry_2
    _ccdc_geom_bond_type
    C42    C44       1.47626      .   S
    C42    C36       1.38974      .   S
    C42    C35       1.38341  1_554   S
    C52    C54       1.47520      .   S
    C52    C48       1.38963      .   S
    C52    C47       1.38370  1_554   S
    C44    C34       1.40997      .   S
    C44    C37       1.40516  1_554   S
    C54    C46       1.40870  1_545   S
    C54    C49       1.40728  1_554   S
    C48    N72       1.18316      .   S
    C36    N70       1.18317      .   S
    C22    N68       1.18545      .   S
    C22    C30       1.38401  1_554   S
    C57    N75       1.18545      .   S
    C57    C62       1.38343  1_554   S
    C59    C34       1.21291  1_455   S
    C59    H20       1.15563      .   S
    C59    C64       1.67047  1_554   S
    C25    C46       1.39091      .   S
    C25    H3        1.09080      .   S
    C25    C32       1.40740  1_554   S
    C34    H9        1.09119      .   S
    C46    H16       1.09112      .   S
    H13    C41       1.08806      .   S
    C41    N69       1.34931      .   S
    C41    C43       1.38568      .   S
    N69    C40       1.34727      .   S
    H14    C43       1.08879      .   S
    C53    Cd24      0.94841  1_545   S
    C43    C39       1.40769      .   S
    H12    C40       1.09004      .   S
    C40    C38       1.39043      .   S
    C51    Cd24      1.86202  1_455   S
    C50    Cd24      0.99852  1_455   S
    C38    C39       1.40922      .   S
    C38    H11       1.09040      .   S
    C39    C45       1.45803      .   S
    H18    C65       1.09330      .   S
    H1     C33       1.09328      .   S
    C55    C33       1.35305  1_465   S
    C55    H15       1.09328      .   S
    C45    C65       1.35244      .   S
    C45    H8        1.09330      .   S
    C33    C27       1.46522      .   S
    H4     C26       1.09081      .   S
    C60    Cd0       0.99806      .   S
    C27    C26       1.43685      .   S
    C27    C31       1.38029  1_645   S
    C26    C28       1.26229      .   S
    C28    H5        1.17228      .   S
    C28    N66       1.41029  1_545   S
    C61    Cd0       1.86261      .   S
    C63    Cd0       0.94774      .   S
    C31    H7        1.08883      .   S
    C31    C29       1.38564      .   S
    N66    C29       1.34977  1_655   S
    C29    H6        1.08804      .   S
    H2     C21       1.09109      .   S
    H19    C56       1.09108      .   S
    H17    C49       1.09080      .   S
    H10    C37       1.09078      .   S
    N71    C35       1.18542      .   S
    N73    C47       1.18546      .   S
    N74    C58       1.18318      .   S
    N67    C23       1.18313      .   S
    C21    C49       1.39091      .   S
    C21    C32       1.40864  1_545   S
    C56    C37       1.39091  1_455   S
    C56    C64       1.40861      .   S
    C58    C62       1.38959      .   S
    C23    C30       1.38914      .   S
    C32    C30       1.47542      .   S
    C64    C62       1.47516      .   S
