# CIF file generated by openbabel 2.4.90, see http://openbabel.sf.net
data_I
_chemical_name_common ''
_cell_length_a 18.488
_cell_length_b 18.475
_cell_length_c 18.451
_cell_angle_alpha 59.888
_cell_angle_beta 59.923
_cell_angle_gamma 59.966
_space_group_name_H-M_alt 'P 1'
_space_group_name_Hall 'P 1'
loop_
    _symmetry_equiv_pos_as_xyz
    x,y,z
loop_
    _atom_site_label
    _atom_site_type_symbol
    _atom_site_fract_x
    _atom_site_fract_y
    _atom_site_fract_z
    _atom_site_occupancy
    C0      C    0.61166   0.78533   0.61131   1.000
    C1      C    0.19857   0.02437   0.19873   1.000
    C2      C    0.61148   0.61131   0.78564   1.000
    C3      C    0.19873   0.19871   0.02399   1.000
    C4      C    0.78528   0.61155   0.61141   1.000
    C5      C    0.02470   0.19853   0.19873   1.000
    C6      C    0.61174   0.61140   0.61110   1.000
    C7      C    0.19853   0.19852   0.19860   1.000
    C8      C    0.21474   0.38841   0.38856   1.000
    C9      C    0.97532   0.80143   0.80123   1.000
    C10     C    0.38854   0.38865   0.21430   1.000
    C11     C    0.80129   0.80125   0.97598   1.000
    C12     C    0.38836   0.21464   0.38866   1.000
    C13     C    0.80145   0.97559   0.80124   1.000
    C14     C    0.38828   0.38856   0.38879   1.000
    C15     C    0.80149   0.80144   0.80135   1.000
    C16     C    0.83683   0.06943   0.35988   1.000
    C17     C    0.74094   0.97371   0.45508   1.000
    C18     C    0.35952   0.83666   0.06971   1.000
    C19     C    0.45494   0.74065   0.97414   1.000
    C20     C    0.06919   0.35963   0.83610   1.000
    C21     C    0.97324   0.45506   0.74047   1.000
    C22     C    0.06926   0.83654   0.35963   1.000
    C23     C    0.97349   0.74072   0.45484   1.000
    C24     C    0.83698   0.35960   0.06981   1.000
    C25     C    0.74090   0.45502   0.97428   1.000
    C26     C    0.35984   0.06934   0.83603   1.000
    C27     C    0.45524   0.97343   0.74037   1.000
    C28     C    0.35659   0.06950   0.35740   1.000
    C29     C    0.45239   0.97428   0.45278   1.000
    C30     C    0.35732   0.83667   0.35710   1.000
    C31     C    0.45372   0.74082   0.45295   1.000
    C32     C    0.35654   0.35698   0.06970   1.000
    C33     C    0.45219   0.45249   0.97467   1.000
    C34     C    0.35764   0.35731   0.83606   1.000
    C35     C    0.45387   0.45333   0.74000   1.000
    C36     C    0.06957   0.35694   0.35725   1.000
    C37     C    0.97430   0.45265   0.45270   1.000
    C38     C    0.83722   0.35695   0.35711   1.000
    C39     C    0.74129   0.45325   0.45304   1.000
    C40     C    0.93077   0.16342   0.64034   1.000
    C41     C    0.02653   0.25924   0.54513   1.000
    C42     C    0.16304   0.64036   0.93010   1.000
    C43     C    0.25912   0.54494   0.02569   1.000
    C44     C    0.64019   0.93062   0.16390   1.000
    C45     C    0.54478   0.02653   0.25960   1.000
    C46     C    0.16319   0.93053   0.64009   1.000
    C47     C    0.25908   0.02625   0.54400   1.000
    C48     C    0.64051   0.16330   0.93020   1.000
    C49     C    0.54509   0.25932   0.02582   1.000
    C50     C    0.93083   0.64032   0.16387   1.000
    C51     C    0.02678   0.54489   0.25950   1.000
    C52     C    0.93045   0.64301   0.64272   1.000
    C53     C    0.02573   0.54731   0.54727   1.000
    C54     C    0.16280   0.64300   0.64280   1.000
    C55     C    0.25873   0.54670   0.54690   1.000
    C56     C    0.64349   0.64298   0.93027   1.000
    C57     C    0.54784   0.54747   0.02529   1.000
    C58     C    0.64239   0.64264   0.16390   1.000
    C59     C    0.54616   0.54662   0.25957   1.000
    C60     C    0.64343   0.93046   0.64257   1.000
    C61     C    0.54764   0.02569   0.54719   1.000
    C62     C    0.64269   0.16329   0.64288   1.000
    C63     C    0.54629   0.25915   0.54703   1.000
    C64     C    0.86607   0.99740   0.38105   1.000
    C65     C    0.81278   0.94417   0.43394   1.000
    C66     C    0.38086   0.86593   0.99750   1.000
    C67     C    0.43385   0.81256   0.94441   1.000
    C68     C    0.99728   0.38090   0.86566   1.000
    C69     C    0.94390   0.43391   0.81253   1.000
    C70     C    0.99734   0.86589   0.38091   1.000
    C71     C    0.94407   0.81264   0.43380   1.000
    C72     C    0.86613   0.38088   0.99764   1.000
    C73     C    0.81273   0.43388   0.94452   1.000
    C74     C    0.38104   0.99732   0.86558   1.000
    C75     C    0.43403   0.94397   0.81243   1.000
    C76     C    0.29389   0.01611   0.29430   1.000
    C77     C    0.35129   0.95872   0.35157   1.000
    C78     C    0.37800   0.99761   0.37840   1.000
    C79     C    0.43140   0.94453   0.43162   1.000
    C80     C    0.37859   0.86596   0.37847   1.000
    C81     C    0.43199   0.81285   0.43158   1.000
    C82     C    0.45879   0.85177   0.45854   1.000
    C83     C    0.51624   0.79450   0.51567   1.000
    C84     C    0.29405   0.29416   0.01587   1.000
    C85     C    0.35141   0.35146   0.95851   1.000
    C86     C    0.37799   0.37821   0.99767   1.000
    C87     C    0.43131   0.43145   0.94470   1.000
    C88     C    0.37879   0.37858   0.86557   1.000
    C89     C    0.43211   0.43178   0.81257   1.000
    C90     C    0.45876   0.45860   0.85176   1.000
    C91     C    0.51613   0.51582   0.79455   1.000
    C92     C    0.01639   0.29390   0.29426   1.000
    C93     C    0.95905   0.35127   0.35152   1.000
    C94     C    0.99780   0.37816   0.37838   1.000
    C95     C    0.94467   0.43151   0.43157   1.000
    C96     C    0.86639   0.37835   0.37847   1.000
    C97     C    0.81325   0.43169   0.43162   1.000
    C98     C    0.85203   0.45865   0.45856   1.000
    C99     C    0.79472   0.51601   0.51575   1.000
    C100    C    0.01606   0.01598   0.29582   1.000
    C101    C    0.95872   0.95864   0.35394   1.000
    C102    C    0.85140   0.85140   0.46062   1.000
    C103    C    0.79416   0.79417   0.51702   1.000
    C104    C    0.29567   0.01609   0.01581   1.000
    C105    C    0.35385   0.95868   0.95852   1.000
    C106    C    0.46076   0.85120   0.85145   1.000
    C107    C    0.51727   0.79393   0.79426   1.000
    C108    C    0.01619   0.29560   0.01587   1.000
    C109    C    0.95878   0.35379   0.95860   1.000
    C110    C    0.85124   0.46071   0.85157   1.000
    C111    C    0.79395   0.51720   0.79437   1.000
    C112    C    0.00269   0.13407   0.61906   1.000
    C113    C    0.05596   0.18732   0.56617   1.000
    C114    C    0.13389   0.61908   0.00232   1.000
    C115    C    0.18729   0.56607   0.05544   1.000
    C116    C    0.61898   0.00264   0.13438   1.000
    C117    C    0.56599   0.05599   0.18750   1.000
    C118    C    0.13396   0.00255   0.61892   1.000
    C119    C    0.18724   0.05579   0.56604   1.000
    C120    C    0.61917   0.13403   0.00242   1.000
    C121    C    0.56618   0.18740   0.05556   1.000
    C122    C    0.00274   0.61906   0.13430   1.000
    C123    C    0.05613   0.56604   0.18744   1.000
    C124    C    0.98363   0.70605   0.70571   1.000
    C125    C    0.04097   0.64868   0.64846   1.000
    C126    C    0.00222   0.62179   0.62160   1.000
    C127    C    0.05535   0.56844   0.56841   1.000
    C128    C    0.13363   0.62160   0.62151   1.000
    C129    C    0.18678   0.56825   0.56836   1.000
    C130    C    0.14800   0.54130   0.54142   1.000
    C131    C    0.20530   0.48395   0.48422   1.000
    C132    C    0.70598   0.70580   0.98410   1.000
    C133    C    0.64861   0.64850   0.04145   1.000
    C134    C    0.62204   0.62174   0.00229   1.000
    C135    C    0.56872   0.56851   0.05526   1.000
    C136    C    0.62124   0.62137   0.13440   1.000
    C137    C    0.56793   0.56817   0.18739   1.000
    C138    C    0.54127   0.54135   0.14820   1.000
    C139    C    0.48390   0.48414   0.20541   1.000
    C140    C    0.70613   0.98386   0.70567   1.000
    C141    C    0.64873   0.04124   0.64840   1.000
    C142    C    0.62202   0.00235   0.62151   1.000
    C143    C    0.56863   0.05544   0.56834   1.000
    C144    C    0.62142   0.13400   0.62151   1.000
    C145    C    0.56803   0.18711   0.56839   1.000
    C146    C    0.54123   0.14819   0.54143   1.000
    C147    C    0.48378   0.20546   0.48429   1.000
    C148    C    0.98397   0.98398   0.70415   1.000
    C149    C    0.04131   0.04132   0.64603   1.000
    C150    C    0.14862   0.14856   0.53935   1.000
    C151    C    0.20586   0.20579   0.48295   1.000
    C152    C    0.98383   0.70436   0.98410   1.000
    C153    C    0.04125   0.64616   0.04137   1.000
    C154    C    0.14879   0.53924   0.14840   1.000
    C155    C    0.20607   0.48275   0.20559   1.000
    C156    C    0.70436   0.98388   0.98416   1.000
    C157    C    0.64618   0.04128   0.04144   1.000
    C158    C    0.53926   0.14876   0.14851   1.000
    C159    C    0.48276   0.20603   0.20571   1.000
    C160    C    0.71030   0.83359   0.53891   1.000
    C161    C    0.97654   0.09981   0.27337   1.000
    C162    C    0.53905   0.70998   0.83380   1.000
    C163    C    0.27297   0.97645   0.09981   1.000
    C164    C    0.83333   0.53918   0.71027   1.000
    C165    C    0.09993   0.27296   0.97601   1.000
    C166    C    0.83353   0.71023   0.53886   1.000
    C167    C    0.09980   0.97632   0.27320   1.000
    C168    C    0.71008   0.53902   0.83395   1.000
    C169    C    0.97670   0.27313   0.09987   1.000
    C170    C    0.53932   0.83338   0.71010   1.000
    C171    C    0.27324   0.09993   0.97596   1.000
    C172    C    0.53821   0.83411   0.53786   1.000
    C173    C    0.53865   0.71064   0.53761   1.000
    C174    C    0.27187   0.09989   0.27218   1.000
    C175    C    0.27180   0.97644   0.27236   1.000
    C176    C    0.53804   0.53787   0.83434   1.000
    C177    C    0.53853   0.53794   0.71050   1.000
    C178    C    0.27196   0.27199   0.09981   1.000
    C179    C    0.27204   0.27228   0.97606   1.000
    C180    C    0.83420   0.53809   0.53795   1.000
    C181    C    0.71096   0.53824   0.53774   1.000
    C182    C    0.10009   0.27197   0.27209   1.000
    C183    C    0.97683   0.27171   0.27230   1.000
    C184    C    0.65494   0.65483   0.65490   1.000
    C185    C    0.15521   0.15504   0.15491   1.000
    C186    C    0.16649   0.28973   0.46111   1.000
    C187    C    0.90022   0.02364   0.72670   1.000
    C188    C    0.28994   0.46094   0.16602   1.000
    C189    C    0.02332   0.72683   0.90000   1.000
    C190    C    0.46070   0.16658   0.28982   1.000
    C191    C    0.72679   0.90003   0.02400   1.000
    C192    C    0.28973   0.16637   0.46106   1.000
    C193    C    0.02349   0.90014   0.72659   1.000
    C194    C    0.46097   0.28999   0.16610   1.000
    C195    C    0.72705   0.02351   0.90015   1.000
    C196    C    0.16669   0.46078   0.28970   1.000
    C197    C    0.90010   0.72699   0.02390   1.000
    C198    C    0.16582   0.46187   0.46202   1.000
    C199    C    0.28907   0.46173   0.46222   1.000
    C200    C    0.89993   0.72800   0.72787   1.000
    C201    C    0.02320   0.72825   0.72761   1.000
    C202    C    0.46198   0.46209   0.16562   1.000
    C203    C    0.46151   0.46200   0.28944   1.000
    C204    C    0.72806   0.72799   0.90015   1.000
    C205    C    0.72798   0.72769   0.02391   1.000
    C206    C    0.46182   0.16585   0.46210   1.000
    C207    C    0.46137   0.28932   0.46236   1.000
    C208    C    0.72815   0.90007   0.72779   1.000
    C209    C    0.72823   0.02352   0.72760   1.000
    C210    C    0.34508   0.34513   0.34506   1.000
    C211    C    0.84482   0.84492   0.84506   1.000
    O212    O    0.63533   0.63512   0.02187   1.000
    O213    O    0.59538   0.59513   0.02877   1.000
    O214    O    0.63276   0.63236   0.96628   1.000
    O215    O    0.08757   0.63262   0.02184   1.000
    O216    O    0.16059   0.59257   0.02888   1.000
    O217    O    0.14846   0.62972   0.96621   1.000
    O218    O    0.63267   0.08766   0.02193   1.000
    O219    O    0.59267   0.16071   0.02899   1.000
    O220    O    0.62984   0.14867   0.96631   1.000
    O221    O    0.28432   0.99627   0.05781   1.000
    O222    O    0.32476   0.98738   0.98716   1.000
    O223    O    0.28445   0.05801   0.99588   1.000
    O224    O    0.28300   0.28307   0.05784   1.000
    O225    O    0.32273   0.32281   0.98719   1.000
    O226    O    0.28304   0.28322   0.99596   1.000
    O227    O    0.99645   0.28436   0.05787   1.000
    O228    O    0.98748   0.32469   0.98723   1.000
    O229    O    0.05806   0.28428   0.99594   1.000
    O230    O    0.85069   0.76412   0.99994   1.000
    O231    O    0.94197   0.71568   0.00400   1.000
    O232    O    0.76464   0.76447   0.99994   1.000
    O233    O    0.71698   0.71674   0.00400   1.000
    O234    O    0.23599   0.14932   0.99997   1.000
    O235    O    0.14933   0.23584   0.00000   1.000
    O236    O    0.23538   0.23549   0.00002   1.000
    O237    O    0.76404   0.85064   0.99999   1.000
    O238    O    0.71557   0.94196   0.00408   1.000
    O239    O    0.55828   0.55799   0.04027   1.000
    O240    O    0.22321   0.55550   0.04056   1.000
    O241    O    0.55563   0.22336   0.04069   1.000
    O242    O    0.02199   0.63261   0.08783   1.000
    O243    O    0.01254   0.67526   0.01273   1.000
    O244    O    0.63258   0.02196   0.08791   1.000
    O245    O    0.67527   0.01258   0.01280   1.000
    O246    O    0.63493   0.63493   0.08792   1.000
    O247    O    0.67730   0.67715   0.01277   1.000
    O248    O    0.55500   0.55493   0.10173   1.000
    O249    O    0.16804   0.55266   0.10192   1.000
    O250    O    0.55272   0.16808   0.10203   1.000
    O251    O    0.36726   0.36760   0.03368   1.000
    O252    O    0.37019   0.85129   0.03360   1.000
    O253    O    0.85156   0.37024   0.03372   1.000
    O254    O    0.23577   0.00041   0.14927   1.000
    O255    O    0.23524   0.23525   0.14920   1.000
    O256    O    0.00070   0.23583   0.14930   1.000
    O257    O    0.96679   0.62969   0.14908   1.000
    O258    O    0.02943   0.59255   0.16087   1.000
    O259    O    0.62958   0.96663   0.14914   1.000
    O260    O    0.59249   0.02932   0.16094   1.000
    O261    O    0.63182   0.63201   0.14915   1.000
    O262    O    0.59458   0.59477   0.16089   1.000
    O263    O    0.55460   0.55476   0.16779   1.000
    O264    O    0.51259   0.51275   0.17680   1.000
    O265    O    0.10246   0.55264   0.16792   1.000
    O266    O    0.17743   0.51100   0.17699   1.000
    O267    O    0.55263   0.10238   0.16800   1.000
    O268    O    0.51101   0.17739   0.17711   1.000
    O269    O    0.17687   0.17678   0.17675   1.000
    O270    O    0.08995   0.17678   0.17682   1.000
    O271    O    0.47294   0.47311   0.18551   1.000
    O272    O    0.42526   0.42537   0.18996   1.000
    O273    O    0.24800   0.47184   0.18580   1.000
    O274    O    0.33924   0.42480   0.19016   1.000
    O275    O    0.47186   0.24801   0.18590   1.000
    O276    O    0.42475   0.33932   0.19020   1.000
    O277    O    0.55704   0.55740   0.22348   1.000
    O278    O    0.04145   0.55547   0.22347   1.000
    O279    O    0.55538   0.04126   0.22355   1.000
    O280    O    0.14931   0.23525   0.23534   1.000
    O281    O    0.23520   0.14921   0.23539   1.000
    O282    O    0.23519   0.00041   0.23554   1.000
    O283    O    0.14919   0.00034   0.23596   1.000
    O284    O    0.00076   0.23512   0.23551   1.000
    O285    O    0.00062   0.14917   0.23605   1.000
    O286    O    0.47271   0.47307   0.24742   1.000
    O287    O    0.18638   0.47177   0.24764   1.000
    O288    O    0.47173   0.18630   0.24776   1.000
    O289    O    0.05824   0.28294   0.28317   1.000
    O290    O    0.28288   0.05800   0.28324   1.000
    O291    O    0.99661   0.28281   0.28328   1.000
    O292    O    0.28285   0.99628   0.28333   1.000
    O293    O    0.05793   0.99615   0.28451   1.000
    O294    O    0.99630   0.05789   0.28459   1.000
    O295    O    0.42490   0.42528   0.33911   1.000
    O296    O    0.19071   0.42460   0.33913   1.000
    O297    O    0.42453   0.19061   0.33924   1.000
    O298    O    0.98772   0.32259   0.32289   1.000
    O299    O    0.32259   0.98742   0.32293   1.000
    O300    O    0.98739   0.98731   0.32488   1.000
    O301    O    0.27991   0.36677   0.36681   1.000
    O302    O    0.36672   0.27988   0.36686   1.000
    O303    O    0.97842   0.36472   0.36495   1.000
    O304    O    0.91272   0.36481   0.36499   1.000
    O305    O    0.36464   0.97817   0.36498   1.000
    O306    O    0.36494   0.91234   0.36502   1.000
    O307    O    0.97803   0.91226   0.36742   1.000
    O308    O    0.91239   0.97802   0.36749   1.000
    O309    O    0.36795   0.85131   0.36778   1.000
    O310    O    0.85181   0.36765   0.36779   1.000
    O311    O    0.03369   0.36755   0.36781   1.000
    O312    O    0.36730   0.03356   0.36790   1.000
    O313    O    0.03330   0.85121   0.37027   1.000
    O314    O    0.85145   0.03342   0.37046   1.000
    O315    O    0.97124   0.40483   0.40497   1.000
    O316    O    0.40470   0.97107   0.40501   1.000
    O317    O    0.40529   0.83941   0.40502   1.000
    O318    O    0.83982   0.40502   0.40504   1.000
    O319    O    0.97071   0.83926   0.40735   1.000
    O320    O    0.83943   0.97079   0.40749   1.000
    O321    O    0.19062   0.33907   0.42483   1.000
    O322    O    0.19028   0.42514   0.42529   1.000
    O323    O    0.33904   0.19050   0.42486   1.000
    O324    O    0.42509   0.19024   0.42538   1.000
    O325    O    0.33868   0.42515   0.42550   1.000
    O326    O    0.42483   0.33894   0.42557   1.000
    O327    O    0.95948   0.44208   0.44213   1.000
    O328    O    0.89835   0.44508   0.44506   1.000
    O329    O    0.44286   0.77684   0.44226   1.000
    O330    O    0.44539   0.83231   0.44506   1.000
    O331    O    0.77727   0.44247   0.44233   1.000
    O332    O    0.83264   0.44517   0.44509   1.000
    O333    O    0.44189   0.95940   0.44220   1.000
    O334    O    0.44510   0.89815   0.44508   1.000
    O335    O    0.95878   0.77668   0.44432   1.000
    O336    O    0.89774   0.83202   0.44721   1.000
    O337    O    0.77686   0.95894   0.44451   1.000
    O338    O    0.83209   0.89779   0.44728   1.000
    O339    O    0.48752   0.82314   0.48710   1.000
    O340    O    0.82337   0.48733   0.48715   1.000
    O341    O    0.82278   0.82279   0.48882   1.000
    O342    O    0.24780   0.18608   0.47200   1.000
    O343    O    0.18618   0.24776   0.47203   1.000
    O344    O    0.18556   0.47291   0.47312   1.000
    O345    O    0.47280   0.18566   0.47319   1.000
    O346    O    0.24719   0.47284   0.47322   1.000
    O347    O    0.47258   0.24739   0.47332   1.000
    O348    O    0.17724   0.17717   0.51115   1.000
    O349    O    0.17665   0.51263   0.51282   1.000
    O350    O    0.51251   0.17683   0.51286   1.000
    O351    O    0.52744   0.75257   0.52664   1.000
    O352    O    0.52722   0.81431   0.52676   1.000
    O353    O    0.75284   0.52712   0.52675   1.000
    O354    O    0.81446   0.52705   0.52685   1.000
    O355    O    0.81385   0.75220   0.52794   1.000
    O356    O    0.75223   0.81388   0.52796   1.000
    O357    O    0.57520   0.66102   0.57435   1.000
    O358    O    0.66135   0.57482   0.57442   1.000
    O359    O    0.57493   0.80972   0.57458   1.000
    O360    O    0.80974   0.57482   0.57468   1.000
    O361    O    0.80941   0.66089   0.57513   1.000
    O362    O    0.66098   0.80946   0.57511   1.000
    O363    O    0.16793   0.10217   0.55269   1.000
    O364    O    0.10229   0.16794   0.55276   1.000
    O365    O    0.16739   0.55478   0.55489   1.000
    O366    O    0.10168   0.55487   0.55492   1.000
    O367    O    0.55493   0.10181   0.55488   1.000
    O368    O    0.55463   0.16765   0.55491   1.000
    O369    O    0.22316   0.04102   0.55502   1.000
    O370    O    0.04124   0.22328   0.55565   1.000
    O371    O    0.22276   0.55748   0.55763   1.000
    O372    O    0.55716   0.22313   0.55771   1.000
    O373    O    0.55813   0.04056   0.55776   1.000
    O374    O    0.04054   0.55788   0.55784   1.000
    O375    O    0.16060   0.02917   0.59248   1.000
    O376    O    0.02932   0.16070   0.59261   1.000
    O377    O    0.59532   0.02889   0.59493   1.000
    O378    O    0.16021   0.59493   0.59493   1.000
    O379    O    0.59472   0.16056   0.59495   1.000
    O380    O    0.02879   0.59512   0.59501   1.000
    O381    O    0.57514   0.57467   0.66080   1.000
    O382    O    0.63330   0.72008   0.63311   1.000
    O383    O    0.57549   0.80936   0.66070   1.000
    O384    O    0.72011   0.63319   0.63316   1.000
    O385    O    0.80931   0.57537   0.66084   1.000
    O386    O    0.14858   0.96654   0.62950   1.000
    O387    O    0.08763   0.02194   0.63247   1.000
    O388    O    0.96673   0.14875   0.62970   1.000
    O389    O    0.02200   0.08770   0.63254   1.000
    O390    O    0.14822   0.63230   0.63216   1.000
    O391    O    0.08730   0.63514   0.63499   1.000
    O392    O    0.63206   0.14865   0.63219   1.000
    O393    O    0.63508   0.08762   0.63495   1.000
    O394    O    0.63272   0.96641   0.63204   1.000
    O395    O    0.63537   0.02179   0.63495   1.000
    O396    O    0.96634   0.63240   0.63216   1.000
    O397    O    0.02160   0.63524   0.63503   1.000
    O398    O    0.01264   0.01265   0.67509   1.000
    O399    O    0.67743   0.01255   0.67703   1.000
    O400    O    0.01230   0.67737   0.67708   1.000
    O401    O    0.00373   0.94206   0.71537   1.000
    O402    O    0.94210   0.00381   0.71542   1.000
    O403    O    0.71718   0.00369   0.71663   1.000
    O404    O    0.71714   0.94196   0.71673   1.000
    O405    O    0.00341   0.71715   0.71666   1.000
    O406    O    0.94178   0.71703   0.71679   1.000
    O407    O    0.52829   0.81366   0.75218   1.000
    O408    O    0.81364   0.52819   0.75232   1.000
    O409    O    0.52733   0.52688   0.75252   1.000
    O410    O    0.99940   0.85079   0.76391   1.000
    O411    O    0.85084   0.99962   0.76397   1.000
    O412    O    0.76484   0.99956   0.76442   1.000
    O413    O    0.99926   0.76484   0.76442   1.000
    O414    O    0.76482   0.85076   0.76457   1.000
    O415    O    0.85071   0.76472   0.76461   1.000
    O416    O    0.44299   0.44255   0.77628   1.000
    O417    O    0.44464   0.95870   0.77640   1.000
    O418    O    0.95857   0.44448   0.77650   1.000
    O419    O    0.57527   0.66064   0.80972   1.000
    O420    O    0.66078   0.57517   0.80979   1.000
    O421    O    0.57476   0.57459   0.80999   1.000
    O422    O    0.52816   0.75195   0.81403   1.000
    O423    O    0.48902   0.82257   0.82285   1.000
    O424    O    0.75202   0.52811   0.81416   1.000
    O425    O    0.82259   0.48896   0.82297   1.000
    O426    O    0.52708   0.52685   0.81444   1.000
    O427    O    0.48744   0.48721   0.82315   1.000
    O428    O    0.91007   0.82318   0.82314   1.000
    O429    O    0.99932   0.76413   0.85061   1.000
    O430    O    0.82313   0.91026   0.82315   1.000
    O431    O    0.76425   0.99955   0.85069   1.000
    O432    O    0.76478   0.76472   0.85075   1.000
    O433    O    0.44740   0.89759   0.83194   1.000
    O434    O    0.40754   0.97065   0.83900   1.000
    O435    O    0.89757   0.44731   0.83205   1.000
    O436    O    0.97059   0.40740   0.83909   1.000
    O437    O    0.44543   0.44519   0.83216   1.000
    O438    O    0.40545   0.40518   0.83907   1.000
    O439    O    0.37044   0.03333   0.85080   1.000
    O440    O    0.36822   0.36794   0.85081   1.000
    O441    O    0.03323   0.37026   0.85088   1.000
    O442    O    0.44731   0.83188   0.89793   1.000
    O443    O    0.83198   0.44729   0.89805   1.000
    O444    O    0.44503   0.44503   0.89823   1.000
    O445    O    0.36510   0.36502   0.91204   1.000
    O446    O    0.36745   0.97800   0.91205   1.000
    O447    O    0.97803   0.36734   0.91213   1.000
    O448    O    0.00358   0.71560   0.94205   1.000
    O449    O    0.71702   0.71690   0.94212   1.000
    O450    O    0.71570   0.00369   0.94215   1.000
    O451    O    0.44440   0.77661   0.95927   1.000
    O452    O    0.40735   0.83925   0.97095   1.000
    O453    O    0.77682   0.44445   0.95940   1.000
    O454    O    0.83943   0.40738   0.97108   1.000
    O455    O    0.44175   0.44197   0.95968   1.000
    O456    O    0.40465   0.40483   0.97118   1.000
    O457    O    0.36470   0.36484   0.97809   1.000
    O458    O    0.36735   0.91231   0.97801   1.000
    O459    O    0.91246   0.36733   0.97812   1.000
    O460    O    0.63321   0.63307   0.72027   1.000
    O461    O    0.63334   0.63312   0.63300   1.000
    O462    O    0.17689   0.08971   0.17682   1.000
    O463    O    0.17697   0.17688   0.08945   1.000
    O464    O    0.36681   0.36689   0.27968   1.000
    O465    O    0.36668   0.36685   0.36692   1.000
    O466    O    0.82305   0.82309   0.91052   1.000
    O467    O    0.82316   0.82318   0.82320   1.000
loop_
    _geom_bond_atom_site_label_1
    _geom_bond_atom_site_label_2
    _geom_bond_distance
    _geom_bond_site_symmetry_2
    _ccdc_geom_bond_type
    C134   O212      0.70088      .   S
    C133   O212      0.70088      .   S
    C134   O213      0.69546      .   S
    C135   O213      0.69546      .   S
    C134   O214      0.54347  1_554   S
    C56    O214      0.54347      .   S
    C114   O215      0.70179      .   S
    C153   O215      0.70179      .   S
    C114   O216      0.69523      .   S
    C115   O216      0.69523      .   S
    C114   O217      0.54481  1_554   S
    C42    O217      0.54481      .   S
    C120   O218      0.70178      .   S
    C157   O218      0.70178      .   S
    C120   O219      0.69525      .   S
    C121   O219      0.69525      .   S
    C120   O220      0.54482  1_554   S
    C48    O220      0.54482      .   S
    C104   O221      0.63863  1_545   S
    C163   O221      0.63863      .   S
    C104   O222      0.74872  1_544   S
    C105   O222      0.74872      .   S
    C104   O223      0.63872  1_554   S
    C171   O223      0.63872      .   S
    C84    O224      0.63839      .   S
    C178   O224      0.63839      .   S
    C84    O225      0.74837  1_554   S
    C85    O225      0.74837      .   S
    C84    O226      0.63853  1_554   S
    C179   O226      0.63853      .   S
    C108   O227      0.63858  1_455   S
    C169   O227      0.63858      .   S
    C108   O228      0.74852  1_454   S
    C109   O228      0.74852      .   S
    C108   O229      0.63870  1_554   S
    C165   O229      0.63870      .   S
    C197   O230      0.98668  1_554   S
    C11    O230      0.98668      .   S
    C197   O231      0.63862      .   S
    C152   O231      0.63862  1_556   S
    C205   O232      0.98773  1_554   S
    C11    O232      0.98773      .   S
    C205   O233      0.63851      .   S
    C132   O233      0.63851  1_556   S
    C3     O234      0.98693  1_554   S
    C171   O234      0.98693      .   S
    C3     O235      0.98696      .   S
    C165   O235      0.98696  1_556   S
    C3     O236      0.98773      .   S
    C179   O236      0.98773  1_556   S
    C191   O237      0.98687  1_554   S
    C11    O237      0.98687      .   S
    C191   O238      0.63871      .   S
    C156   O238      0.63871  1_556   S
    C57    O239      0.54444      .   S
    C135   O239      0.54444      .   S
    C43    O240      0.54378      .   S
    C115   O240      0.54378      .   S
    C49    O241      0.54380      .   S
    C121   O241      0.54380      .   S
    C153   O242      0.70168      .   S
    C122   O242      0.70168      .   S
    C153   O243      0.74851      .   S
    C152   O243      0.74851  1_656   S
    C157   O244      0.70175      .   S
    C116   O244      0.70175      .   S
    C157   O245      0.74865      .   S
    C156   O245      0.74865  1_566   S
    C133   O246      0.70180      .   S
    C136   O246      0.70180      .   S
    C133   O247      0.74837      .   S
    C132   O247      0.74837  1_556   S
    C135   O248      0.70165      .   S
    C138   O248      0.70165      .   S
    C115   O249      0.70191      .   S
    C154   O249      0.70191      .   S
    C121   O250      0.70183      .   S
    C158   O250      0.70183      .   S
    C32    O251      0.54355      .   S
    C86    O251      0.54355  1_556   S
    C18    O252      0.54475      .   S
    C66    O252      0.54475  1_556   S
    C24    O253      0.54445      .   S
    C72    O253      0.54445  1_556   S
    C163   O254      0.98654  1_565   S
    C1     O254      0.98654      .   S
    C178   O255      0.98607      .   S
    C7     O255      0.98607      .   S
    C169   O256      0.98615  1_655   S
    C5     O256      0.98615      .   S
    C122   O257      0.54421  1_455   S
    C50    O257      0.54421      .   S
    C122   O258      0.69524      .   S
    C123   O258      0.69524      .   S
    C116   O259      0.54441  1_545   S
    C44    O259      0.54441      .   S
    C116   O260      0.69500      .   S
    C117   O260      0.69500      .   S
    C136   O261      0.54435      .   S
    C58    O261      0.54435      .   S
    C136   O262      0.69520      .   S
    C137   O262      0.69520      .   S
    C138   O263      0.70220      .   S
    C137   O263      0.70220      .   S
    C138   O264      0.74784      .   S
    C139   O264      0.74784      .   S
    C154   O265      0.70191      .   S
    C123   O265      0.70191      .   S
    C154   O266      0.74718      .   S
    C155   O266      0.74718      .   S
    C158   O267      0.70187      .   S
    C117   O267      0.70187      .   S
    C158   O268      0.74727      .   S
    C159   O268      0.74727      .   S
    C185   O269      0.98456      .   S
    C7     O269      0.98456      .   S
    C185   O270      0.98448      .   S
    C5     O270      0.98448      .   S
    C202   O271      0.63890      .   S
    C139   O271      0.63890      .   S
    C202   O272      0.98613      .   S
    C10    O272      0.98613      .   S
    C188   O273      0.63925      .   S
    C155   O273      0.63925      .   S
    C188   O274      0.98707      .   S
    C10    O274      0.98707      .   S
    C194   O275      0.63924      .   S
    C159   O275      0.63924      .   S
    C194   O276      0.98697      .   S
    C10    O276      0.98697      .   S
    C137   O277      0.54435      .   S
    C59    O277      0.54435      .   S
    C123   O278      0.54376      .   S
    C51    O278      0.54376      .   S
    C117   O279      0.54406      .   S
    C45    O279      0.54406      .   S
    C7     O280      0.98650      .   S
    C182   O280      0.98650      .   S
    C7     O281      0.98637      .   S
    C174   O281      0.98637      .   S
    C1     O282      0.98732      .   S
    C175   O282      0.98732  1_565   S
    C1     O283      0.98671      .   S
    C167   O283      0.98671  1_565   S
    C5     O284      0.98658      .   S
    C183   O284      0.98658  1_655   S
    C5     O285      0.98637      .   S
    C161   O285      0.98637  1_655   S
    C139   O286      0.63883      .   S
    C203   O286      0.63883      .   S
    C155   O287      0.63924      .   S
    C196   O287      0.63924      .   S
    C159   O288      0.63918      .   S
    C190   O288      0.63918      .   S
    C182   O289      0.63842      .   S
    C92    O289      0.63842      .   S
    C174   O290      0.63841      .   S
    C76    O290      0.63841      .   S
    C183   O291      0.63863      .   S
    C92    O291      0.63863  1_455   S
    C175   O292      0.63847      .   S
    C76    O292      0.63847  1_545   S
    C167   O293      0.63871      .   S
    C100   O293      0.63871  1_545   S
    C161   O294      0.63861      .   S
    C100   O294      0.63861  1_455   S
    C203   O295      0.98612      .   S
    C14    O295      0.98612      .   S
    C196   O296      0.98641      .   S
    C8     O296      0.98641      .   S
    C190   O297      0.98668      .   S
    C12    O297      0.98668      .   S
    C92    O298      0.74828  1_455   S
    C93    O298      0.74828      .   S
    C76    O299      0.74838  1_545   S
    C77    O299      0.74838      .   S
    C100   O300      0.74841  1_445   S
    C101   O300      0.74841      .   S
    C210   O301      0.98326      .   S
    C8     O301      0.98326      .   S
    C210   O302      0.98336      .   S
    C12    O302      0.98336      .   S
    C93    O303      0.70085      .   S
    C94    O303      0.70085      .   S
    C93    O304      0.70180      .   S
    C96    O304      0.70180      .   S
    C77    O305      0.70039      .   S
    C78    O305      0.70039      .   S
    C77    O306      0.70180      .   S
    C80    O306      0.70180      .   S
    C101   O307      0.70175      .   S
    C70    O307      0.70175      .   S
    C101   O308      0.70176      .   S
    C64    O308      0.70176      .   S
    C30    O309      0.54436      .   S
    C80    O309      0.54436      .   S
    C38    O310      0.54435      .   S
    C96    O310      0.54435      .   S
    C36    O311      0.54328      .   S
    C94    O311      0.54328  1_655   S
    C28    O312      0.54356      .   S
    C78    O312      0.54356  1_565   S
    C22    O313      0.54420      .   S
    C70    O313      0.54420  1_655   S
    C16    O314      0.54442      .   S
    C64    O314      0.54442  1_565   S
    C94    O315      0.69545      .   S
    C95    O315      0.69545      .   S
    C78    O316      0.69586      .   S
    C79    O316      0.69586      .   S
    C80    O317      0.69518      .   S
    C81    O317      0.69518      .   S
    C96    O318      0.69518      .   S
    C97    O318      0.69518      .   S
    C70    O319      0.69519      .   S
    C71    O319      0.69519      .   S
    C64    O320      0.69520      .   S
    C65    O320      0.69520      .   S
    C8     O321      0.98658      .   S
    C186   O321      0.98658      .   S
    C8     O322      0.98556      .   S
    C198   O322      0.98556      .   S
    C12    O323      0.98690      .   S
    C192   O323      0.98690      .   S
    C12    O324      0.98574      .   S
    C206   O324      0.98574      .   S
    C14    O325      0.98640      .   S
    C199   O325      0.98640      .   S
    C14    O326      0.98634      .   S
    C207   O326      0.98634      .   S
    C95    O327      0.54439      .   S
    C37    O327      0.54439      .   S
    C95    O328      0.70163      .   S
    C98    O328      0.70163      .   S
    C81    O329      0.54432      .   S
    C31    O329      0.54432      .   S
    C81    O330      0.70222      .   S
    C82    O330      0.70222      .   S
    C97    O331      0.54432      .   S
    C39    O331      0.54432      .   S
    C97    O332      0.70217      .   S
    C98    O332      0.70217      .   S
    C79    O333      0.54447      .   S
    C29    O333      0.54447      .   S
    C79    O334      0.70163      .   S
    C82    O334      0.70163      .   S
    C71    O335      0.54377      .   S
    C23    O335      0.54377      .   S
    C71    O336      0.70189      .   S
    C102   O336      0.70189      .   S
    C65    O337      0.54377      .   S
    C17    O337      0.54377      .   S
    C65    O338      0.70187      .   S
    C102   O338      0.70187      .   S
    C82    O339      0.74779      .   S
    C83    O339      0.74779      .   S
    C98    O340      0.74770      .   S
    C99    O340      0.74770      .   S
    C102   O341      0.74717      .   S
    C103   O341      0.74717      .   S
    C192   O342      0.63924      .   S
    C151   O342      0.63924      .   S
    C186   O343      0.63920      .   S
    C151   O343      0.63920      .   S
    C198   O344      0.63887      .   S
    C131   O344      0.63887      .   S
    C206   O345      0.63891      .   S
    C147   O345      0.63891      .   S
    C199   O346      0.63880      .   S
    C131   O346      0.63880      .   S
    C207   O347      0.63881      .   S
    C147   O347      0.63881      .   S
    C151   O348      0.74717      .   S
    C150   O348      0.74717      .   S
    C131   O349      0.74774      .   S
    C130   O349      0.74774      .   S
    C147   O350      0.74782      .   S
    C146   O350      0.74782      .   S
    C83    O351      0.63880      .   S
    C173   O351      0.63880      .   S
    C83    O352      0.63892      .   S
    C172   O352      0.63892      .   S
    C99    O353      0.63880      .   S
    C181   O353      0.63880      .   S
    C99    O354      0.63888      .   S
    C180   O354      0.63888      .   S
    C103   O355      0.63920      .   S
    C166   O355      0.63920      .   S
    C103   O356      0.63924      .   S
    C160   O356      0.63924      .   S
    C173   O357      0.98593      .   S
    C6     O357      0.98593      .   S
    C181   O358      0.98603      .   S
    C6     O358      0.98603      .   S
    C172   O359      0.98581      .   S
    C0     O359      0.98581      .   S
    C180   O360      0.98559      .   S
    C4     O360      0.98559      .   S
    C166   O361      0.98658      .   S
    C4     O361      0.98658      .   S
    C160   O362      0.98691      .   S
    C0     O362      0.98691      .   S
    C150   O363      0.70186      .   S
    C119   O363      0.70186      .   S
    C150   O364      0.70189      .   S
    C113   O364      0.70189      .   S
    C130   O365      0.70214      .   S
    C129   O365      0.70214      .   S
    C130   O366      0.70163      .   S
    C127   O366      0.70163      .   S
    C146   O367      0.70164      .   S
    C143   O367      0.70164      .   S
    C146   O368      0.70220      .   S
    C145   O368      0.70220      .   S
    C47    O369      0.54383      .   S
    C119   O369      0.54383      .   S
    C41    O370      0.54377      .   S
    C113   O370      0.54377      .   S
    C55    O371      0.54429      .   S
    C129   O371      0.54429      .   S
    C63    O372      0.54432      .   S
    C145   O372      0.54432      .   S
    C61    O373      0.54439      .   S
    C143   O373      0.54439      .   S
    C53    O374      0.54445      .   S
    C127   O374      0.54445      .   S
    C119   O375      0.69520      .   S
    C118   O375      0.69520      .   S
    C113   O376      0.69518      .   S
    C112   O376      0.69518      .   S
    C143   O377      0.69550      .   S
    C142   O377      0.69550      .   S
    C129   O378      0.69518      .   S
    C128   O378      0.69518      .   S
    C145   O379      0.69521      .   S
    C144   O379      0.69521      .   S
    C127   O380      0.69546      .   S
    C126   O380      0.69546      .   S
    C6     O381      0.98624      .   S
    C177   O381      0.98624      .   S
    C0     O382      0.98336      .   S
    C184   O382      0.98336      .   S
    C0     O383      0.98630      .   S
    C170   O383      0.98630      .   S
    C4     O384      0.98326      .   S
    C184   O384      0.98326      .   S
    C4     O385      0.98641      .   S
    C164   O385      0.98641      .   S
    C118   O386      0.54443  1_545   S
    C46    O386      0.54443      .   S
    C118   O387      0.70177      .   S
    C149   O387      0.70177      .   S
    C112   O388      0.54420  1_455   S
    C40    O388      0.54420      .   S
    C112   O389      0.70175      .   S
    C149   O389      0.70175      .   S
    C128   O390      0.54382      .   S
    C54    O390      0.54382      .   S
    C128   O391      0.70180      .   S
    C125   O391      0.70180      .   S
    C144   O392      0.54435      .   S
    C62    O392      0.54435      .   S
    C144   O393      0.70180      .   S
    C141   O393      0.70180      .   S
    C142   O394      0.54352  1_545   S
    C60    O394      0.54352      .   S
    C142   O395      0.70082      .   S
    C141   O395      0.70082      .   S
    C126   O396      0.54328  1_455   S
    C52    O396      0.54328      .   S
    C126   O397      0.70084      .   S
    C125   O397      0.70084      .   S
    C149   O398      0.74841      .   S
    C148   O398      0.74841  1_665   S
    C141   O399      0.74838      .   S
    C140   O399      0.74838  1_565   S
    C125   O400      0.74825      .   S
    C124   O400      0.74825  1_655   S
    C148   O401      0.63862  1_655   S
    C193   O401      0.63862      .   S
    C148   O402      0.63869  1_565   S
    C187   O402      0.63869      .   S
    C140   O403      0.63847  1_565   S
    C209   O403      0.63847      .   S
    C140   O404      0.63841      .   S
    C208   O404      0.63841      .   S
    C124   O405      0.63820  1_655   S
    C201   O405      0.63820      .   S
    C124   O406      0.63842      .   S
    C200   O406      0.63842      .   S
    C170   O407      0.63954      .   S
    C107   O407      0.63954      .   S
    C164   O408      0.63917      .   S
    C111   O408      0.63917      .   S
    C177   O409      0.63899      .   S
    C91    O409      0.63899      .   S
    C193   O410      0.98637  1_455   S
    C9     O410      0.98637      .   S
    C187   O411      0.98672  1_545   S
    C13    O411      0.98672      .   S
    C209   O412      0.98736  1_545   S
    C13    O412      0.98736      .   S
    C201   O413      0.98699  1_455   S
    C9     O413      0.98699      .   S
    C208   O414      0.98626      .   S
    C15    O414      0.98626      .   S
    C200   O415      0.98644      .   S
    C15    O415      0.98644      .   S
    C35    O416      0.54743      .   S
    C89    O416      0.54743      .   S
    C27    O417      0.54377      .   S
    C75    O417      0.54377      .   S
    C21    O418      0.54376      .   S
    C69    O418      0.54376      .   S
    C2     O419      0.98674      .   S
    C162   O419      0.98674      .   S
    C2     O420      0.98724      .   S
    C168   O420      0.98724      .   S
    C2     O421      0.98608      .   S
    C176   O421      0.98608      .   S
    C107   O422      0.63916      .   S
    C162   O422      0.63916      .   S
    C107   O423      0.74721      .   S
    C106   O423      0.74721      .   S
    C111   O424      0.63926      .   S
    C168   O424      0.63926      .   S
    C111   O425      0.74724      .   S
    C110   O425      0.74724      .   S
    C91    O426      0.63890      .   S
    C176   O426      0.63890      .   S
    C91    O427      0.74785      .   S
    C90    O427      0.74785      .   S
    C9     O428      0.98447      .   S
    C211   O428      0.98447      .   S
    C9     O429      0.98549      .   S
    C189   O429      0.98549  1_455   S
    C13    O430      0.98468      .   S
    C211   O430      0.98468      .   S
    C13    O431      0.98646      .   S
    C195   O431      0.98646  1_545   S
    C15    O432      0.98609      .   S
    C204   O432      0.98609      .   S
    C75    O433      0.70190      .   S
    C106   O433      0.70190      .   S
    C75    O434      0.69519      .   S
    C74    O434      0.69519      .   S
    C69    O435      0.70191      .   S
    C110   O435      0.70191      .   S
    C69    O436      0.69517      .   S
    C68    O436      0.69517      .   S
    C89    O437      0.70221      .   S
    C90    O437      0.70221      .   S
    C89    O438      0.69520      .   S
    C88    O438      0.69520      .   S
    C26    O439      0.54443      .   S
    C74    O439      0.54443  1_565   S
    C34    O440      0.54444      .   S
    C88    O440      0.54444      .   S
    C20    O441      0.54421      .   S
    C68    O441      0.54421  1_655   S
    C106   O442      0.70190      .   S
    C67    O442      0.70190      .   S
    C110   O443      0.70183      .   S
    C73    O443      0.70183      .   S
    C90    O444      0.70165      .   S
    C87    O444      0.70165      .   S
    C88    O445      0.70173      .   S
    C85    O445      0.70173      .   S
    C74    O446      0.70175      .   S
    C105   O446      0.70175      .   S
    C68    O447      0.70175      .   S
    C109   O447      0.70175      .   S
    C189   O448      0.63928      .   S
    C152   O448      0.63928  1_655   S
    C204   O449      0.63847      .   S
    C132   O449      0.63847      .   S
    C195   O450      0.63870      .   S
    C156   O450      0.63870  1_565   S
    C67    O451      0.54379      .   S
    C19    O451      0.54379      .   S
    C67    O452      0.69492      .   S
    C66    O452      0.69492      .   S
    C73    O453      0.54380      .   S
    C25    O453      0.54380      .   S
    C73    O454      0.69523      .   S
    C72    O454      0.69523      .   S
    C87    O455      0.54445      .   S
    C33    O455      0.54445      .   S
    C87    O456      0.69546      .   S
    C86    O456      0.69546      .   S
    C85    O457      0.70089      .   S
    C86    O457      0.70089      .   S
    C105   O458      0.70175      .   S
    C66    O458      0.70175      .   S
    C109   O459      0.70179      .   S
    C72    O459      0.70179      .   S
    C184   O460      0.98349      .   S
    C2     O460      0.98349      .   S
    C184   O461      0.98410      .   S
    C6     O461      0.98410      .   S
    C185   O462      0.98468      .   S
    C1     O462      0.98468      .   S
    C185   O463      0.98484      .   S
    C3     O463      0.98484      .   S
    C210   O464      0.98364      .   S
    C10    O464      0.98364      .   S
    C210   O465      0.98358      .   S
    C14    O465      0.98358      .   S
    C211   O466      0.98484      .   S
    C11    O466      0.98484      .   S
    C211   O467      0.98469      .   S
    C15    O467      0.98469      .   S
