# CIF file generated by openbabel 2.4.90, see http://openbabel.sf.net
data_I
_chemical_name_common ''
_cell_length_a 18.488
_cell_length_b 18.475
_cell_length_c 18.451
_cell_angle_alpha 59.888
_cell_angle_beta 59.923
_cell_angle_gamma 59.966
_space_group_name_H-M_alt 'P 1'
_space_group_name_Hall 'P 1'
loop_
    _symmetry_equiv_pos_as_xyz
    x,y,z
loop_
    _atom_site_label
    _atom_site_type_symbol
    _atom_site_fract_x
    _atom_site_fract_y
    _atom_site_fract_z
    _atom_site_occupancy
    Zr0     Zr   0.61166   0.78533   0.61131   1.000
    Zr1     Zr   0.19857   0.02437   0.19873   1.000
    Zr2     Zr   0.61148   0.61131   0.78564   1.000
    Zr3     Zr   0.19873   0.19871   0.02399   1.000
    Zr4     Zr   0.78528   0.61155   0.61141   1.000
    Zr5     Zr   0.02470   0.19853   0.19873   1.000
    Zr6     Zr   0.61174   0.61140   0.61110   1.000
    Zr7     Zr   0.19853   0.19852   0.19860   1.000
    Zr8     Zr   0.21474   0.38841   0.38856   1.000
    Zr9     Zr   0.97532   0.80143   0.80123   1.000
    Zr10    Zr   0.38854   0.38865   0.21430   1.000
    Zr11    Zr   0.80129   0.80125   0.97598   1.000
    Zr12    Zr   0.38836   0.21464   0.38866   1.000
    Zr13    Zr   0.80145   0.97559   0.80124   1.000
    Zr14    Zr   0.38828   0.38856   0.38879   1.000
    Zr15    Zr   0.80149   0.80144   0.80135   1.000
    N16     N    0.40697   0.90497   0.90499   1.000
    O17     O    0.32137   0.95269   0.02713   1.000
    O18     O    0.32148   0.02715   0.95248   1.000
    O19     O    0.49123   0.85716   0.78285   1.000
    O20     O    0.49112   0.78281   0.85736   1.000
    N21     N    0.09499   0.59305   0.09486   1.000
    O22     O    0.14285   0.50882   0.21699   1.000
    O23     O    0.97284   0.67859   0.04740   1.000
    O24     O    0.21711   0.50892   0.14251   1.000
    O25     O    0.04716   0.67859   0.97274   1.000
    N26     N    0.40508   0.40502   0.90515   1.000
    O27     O    0.32023   0.32026   0.95259   1.000
    O28     O    0.32016   0.32013   0.02718   1.000
    O29     O    0.49011   0.48984   0.78297   1.000
    O30     O    0.48992   0.48980   0.85757   1.000
    N31     N    0.09494   0.09492   0.59298   1.000
    O32     O    0.14278   0.21699   0.50891   1.000
    O33     O    0.21699   0.14271   0.50892   1.000
    O34     O    0.04717   0.97285   0.67845   1.000
    O35     O    0.97289   0.04727   0.67848   1.000
    N36     N    0.90555   0.40496   0.40502   1.000
    O37     O    0.85765   0.48989   0.48985   1.000
    O38     O    0.95316   0.32004   0.32027   1.000
    O39     O    0.02743   0.32010   0.32018   1.000
    O40     O    0.78345   0.48989   0.48972   1.000
    N41     N    0.09448   0.59500   0.59494   1.000
    O42     O    0.04687   0.67992   0.67968   1.000
    O43     O    0.14238   0.51007   0.51012   1.000
    O44     O    0.21658   0.51007   0.51022   1.000
    O45     O    0.97259   0.67986   0.67978   1.000
    N46     N    0.59497   0.09469   0.59494   1.000
    O47     O    0.51003   0.14247   0.51016   1.000
    O48     O    0.67990   0.97272   0.67976   1.000
    O49     O    0.50990   0.21682   0.51026   1.000
    O50     O    0.67991   0.04712   0.67968   1.000
    N51     N    0.59494   0.59494   0.09479   1.000
    O52     O    0.50992   0.51011   0.21695   1.000
    O53     O    0.51010   0.51016   0.14238   1.000
    O54     O    0.67986   0.67983   0.97277   1.000
    O55     O    0.67979   0.67971   0.04737   1.000
    N56     N    0.90508   0.90504   0.40693   1.000
    O57     O    0.02713   0.95269   0.32145   1.000
    O58     O    0.78303   0.85725   0.49102   1.000
    O59     O    0.95285   0.02711   0.32149   1.000
    O60     O    0.85724   0.78297   0.49103   1.000
    N61     N    0.90503   0.40690   0.90509   1.000
    O62     O    0.85717   0.49113   0.78297   1.000
    O63     O    0.95287   0.32137   0.02720   1.000
    O64     O    0.78291   0.49103   0.85744   1.000
    O65     O    0.02718   0.32137   0.95255   1.000
    N66     N    0.40505   0.90528   0.40502   1.000
    O67     O    0.48999   0.85750   0.48980   1.000
    O68     O    0.32012   0.95284   0.32028   1.000
    O69     O    0.49012   0.78315   0.48969   1.000
    O70     O    0.32012   0.02724   0.32021   1.000
    N71     N    0.59306   0.09499   0.09495   1.000
    O72     O    0.67866   0.04727   0.97282   1.000
    O73     O    0.67855   0.97282   0.04747   1.000
    O74     O    0.50891   0.21716   0.14258   1.000
    O75     O    0.50880   0.14280   0.21710   1.000
    N76     N    0.15521   0.15504   0.15491   1.000
    O77     O    0.16604   0.16591   0.16583   1.000
    O78     O    0.12258   0.16591   0.16586   1.000
    O79     O    0.16605   0.12237   0.16586   1.000
    O80     O    0.16609   0.16596   0.12218   1.000
    N81     N    0.34508   0.34513   0.34506   1.000
    O82     O    0.35590   0.31251   0.35596   1.000
    O83     O    0.35595   0.35601   0.31237   1.000
    O84     O    0.35588   0.35599   0.35599   1.000
    O85     O    0.31250   0.35595   0.35593   1.000
    N86     N    0.65494   0.65483   0.65490   1.000
    O87     O    0.64412   0.68746   0.64400   1.000
    O88     O    0.64407   0.64395   0.68758   1.000
    O89     O    0.64414   0.64397   0.64395   1.000
    O90     O    0.68753   0.64401   0.64403   1.000
    N91     N    0.84482   0.84492   0.84506   1.000
    O92     O    0.87744   0.83405   0.83410   1.000
    O93     O    0.83397   0.87759   0.83410   1.000
    O94     O    0.83393   0.83400   0.87779   1.000
    O95     O    0.83399   0.83405   0.83413   1.000
loop_
    _geom_bond_atom_site_label_1
    _geom_bond_atom_site_label_2
    _geom_bond_distance
    _geom_bond_site_symmetry_2
    _ccdc_geom_bond_type
    N16    O17       2.32004  1_556   S
    Zr1    O17       3.30534  1_545   S
    N16    O18       2.32078  1_565   S
    Zr3    O18       3.30638  1_554   S
    N16    O19       2.32096      .   S
    Zr0    O19       3.30599      .   S
    N16    O20       2.32202      .   S
    Zr2    O20       3.30742      .   S
    N21    O22       2.32049      .   S
    Zr8    O22       3.30565      .   S
    N21    O23       2.32059  1_455   S
    Zr11   O23       3.30597  1_556   S
    N21    O24       2.32213      .   S
    Zr10   O24       3.30782      .   S
    N21    O25       2.31992  1_554   S
    Zr9    O25       3.30416  1_655   S
    N26    O27       2.32091      .   S
    Zr3    O27       3.30735  1_554   S
    N26    O28       2.31781  1_556   S
    Zr7    O28       3.30261      .   S
    N26    O29       2.31910      .   S
    Zr6    O29       3.30430      .   S
    N26    O30       2.32039      .   S
    Zr2    O30       3.30492      .   S
    N31    O32       2.32083      .   S
    Zr8    O32       3.30610      .   S
    N31    O33       2.32145      .   S
    Zr12   O33       3.30702      .   S
    N31    O34       2.31990  1_545   S
    Zr9    O34       3.30495  1_655   S
    N31    O35       2.32005  1_455   S
    Zr13   O35       3.30547  1_565   S
    N36    O37       2.31951      .   S
    Zr4    O37       3.30355      .   S
    N36    O38       2.31977      .   S
    Zr5    O38       3.30510  1_455   S
    N36    O39       2.31866  1_655   S
    Zr7    O39       3.30375      .   S
    N36    O40       2.31924      .   S
    Zr6    O40       3.30418      .   S
    N41    O42       2.31958      .   S
    Zr9    O42       3.30533  1_655   S
    N41    O43       2.31941      .   S
    Zr8    O43       3.30343      .   S
    N41    O44       2.31938      .   S
    Zr14   O44       3.30468      .   S
    N41    O45       2.31868  1_455   S
    Zr15   O45       3.30372      .   S
    N46    O47       2.31982      .   S
    Zr12   O47       3.30402      .   S
    N46    O48       2.31832  1_545   S
    Zr15   O48       3.30325      .   S
    N46    O49       2.31938      .   S
    Zr14   O49       3.30463      .   S
    N46    O50       2.32021      .   S
    Zr13   O50       3.30631  1_565   S
    N51    O52       2.31904      .   S
    Zr14   O52       3.30412      .   S
    N51    O53       2.32037      .   S
    Zr10   O53       3.30495      .   S
    N51    O54       2.31778  1_554   S
    Zr15   O54       3.30260      .   S
    N51    O55       2.32098      .   S
    Zr11   O55       3.30742  1_556   S
    N56    O57       2.32004  1_655   S
    Zr1    O57       3.30545  1_545   S
    N56    O58       2.32144      .   S
    Zr0    O58       3.30702      .   S
    N56    O59       2.31990  1_565   S
    Zr5    O59       3.30495  1_455   S
    N56    O60       2.32082      .   S
    Zr4    O60       3.30609      .   S
    N61    O62       2.32037      .   S
    Zr4    O62       3.30553      .   S
    N61    O63       2.31963  1_556   S
    Zr5    O63       3.30454  1_455   S
    N61    O64       2.32214      .   S
    Zr2    O64       3.30799      .   S
    N61    O65       2.32052  1_655   S
    Zr3    O65       3.30616  1_554   S
    N66    O67       2.31984      .   S
    Zr0    O67       3.30412      .   S
    N66    O68       2.32018      .   S
    Zr1    O68       3.30623  1_545   S
    N66    O69       2.31923      .   S
    Zr6    O69       3.30408      .   S
    N66    O70       2.31834  1_565   S
    Zr7    O70       3.30337      .   S
    N71    O72       2.31990  1_554   S
    Zr13   O72       3.30513  1_565   S
    N71    O73       2.32069  1_545   S
    Zr11   O73       3.30623  1_556   S
    N71    O74       2.32189      .   S
    Zr10   O74       3.30750      .   S
    N71    O75       2.32095      .   S
    Zr12   O75       3.30637      .   S
    N76    O77       0.49228      .   S
    Zr7    O77       1.47684      .   S
    N76    O78       0.49224      .   S
    Zr5    O78       1.47672      .   S
    N76    O79       0.49234      .   S
    Zr1    O79       1.47702      .   S
    N76    O80       0.49242      .   S
    Zr3    O80       1.47726      .   S
    N81    O82       0.49168      .   S
    Zr12   O82       1.47504      .   S
    N81    O83       0.49182      .   S
    Zr10   O83       1.47546      .   S
    N81    O84       0.49179      .   S
    Zr14   O84       1.47537      .   S
    N81    O85       0.49163      .   S
    Zr8    O85       1.47489      .   S
    N86    O87       0.49168      .   S
    Zr0    O87       1.47505      .   S
    N86    O88       0.49174      .   S
    Zr2    O88       1.47523      .   S
    N86    O89       0.49205      .   S
    Zr6    O89       1.47615      .   S
    N86    O90       0.49163      .   S
    Zr4    O90       1.47489      .   S
    N91    O92       0.49224      .   S
    Zr9    O92       1.47671      .   S
    N91    O93       0.49234      .   S
    Zr13   O93       1.47702      .   S
    N91    O94       0.49242      .   S
    Zr11   O94       1.47726      .   S
    N91    O95       0.49235      .   S
    Zr15   O95       1.47704      .   S
