# CIF file generated by openbabel 2.4.90, see http://openbabel.sf.net
data_I
_chemical_name_common ''
_cell_length_a 18.923
_cell_length_b 18.949
_cell_length_c 18.947
_cell_angle_alpha 90
_cell_angle_beta 89.998
_cell_angle_gamma 89.999
_space_group_name_H-M_alt 'P 1'
_space_group_name_Hall 'P 1'
loop_
    _symmetry_equiv_pos_as_xyz
    x,y,z
loop_
    _atom_site_label
    _atom_site_type_symbol
    _atom_site_fract_x
    _atom_site_fract_y
    _atom_site_fract_z
    _atom_site_occupancy
    N0      N    0.71282   0.28709   0.28717   1.000
    N1      N    0.28705   0.28710   0.71286   1.000
    N2      N    0.71292   0.71291   0.28708   1.000
    N3      N    0.28703   0.28710   0.28695   1.000
    N4      N    0.71310   0.28707   0.71302   1.000
    N5      N    0.28715   0.71294   0.71285   1.000
    N6      N    0.71294   0.71290   0.71298   1.000
    N7      N    0.28686   0.71294   0.28700   1.000
    Zr8     Zr   0.00002   0.37295   0.49990   1.000
    O9      O    0.91910   0.35145   0.43719   1.000
    O10     O    0.91910   0.35156   0.56267   1.000
    O11     O    0.08089   0.35148   0.56268   1.000
    O12     O    0.08095   0.35155   0.43718   1.000
    Zr13    Zr   0.50014   0.00005   0.62702   1.000
    O14     O    0.56287   0.91912   0.64849   1.000
    O15     O    0.43736   0.91914   0.64846   1.000
    O16     O    0.56295   0.08091   0.64853   1.000
    O17     O    0.43736   0.08098   0.64842   1.000
    Zr18    Zr   0.49983   0.99994   0.37298   1.000
    O19     O    0.43706   0.91904   0.35149   1.000
    O20     O    0.43706   0.08083   0.35144   1.000
    O21     O    0.56265   0.91906   0.35152   1.000
    O22     O    0.56258   0.08091   0.35160   1.000
    Zr23    Zr   0.37258   0.50003   0.99995   1.000
    O24     O    0.35114   0.56280   0.08083   1.000
    O25     O    0.35128   0.56276   0.91902   1.000
    O26     O    0.35120   0.43726   0.91906   1.000
    O27     O    0.35125   0.43730   0.08086   1.000
    Zr28    Zr   0.62795   0.99997   0.50015   1.000
    O29     O    0.64919   0.08088   0.56290   1.000
    O30     O    0.64911   0.91906   0.43737   1.000
    O31     O    0.64915   0.91908   0.56289   1.000
    O32     O    0.64909   0.08089   0.43740   1.000
    Zr33    Zr   0.37201   0.00002   0.49985   1.000
    O34     O    0.35074   0.91915   0.43709   1.000
    O35     O    0.35082   0.08091   0.56264   1.000
    O36     O    0.35086   0.08094   0.43712   1.000
    O37     O    0.35092   0.91907   0.56259   1.000
    Zr38    Zr   0.99992   0.49995   0.37293   1.000
    O39     O    0.08083   0.56269   0.35150   1.000
    O40     O    0.08083   0.43721   0.35141   1.000
    O41     O    0.91905   0.56272   0.35147   1.000
    O42     O    0.91897   0.43724   0.35155   1.000
    Zr43    Zr   0.00006   0.50006   0.62709   1.000
    O44     O    0.91911   0.56276   0.64852   1.000
    O45     O    0.08096   0.56281   0.64854   1.000
    O46     O    0.91920   0.43728   0.64858   1.000
    O47     O    0.08099   0.43732   0.64847   1.000
    Zr48    Zr   0.50002   0.37300   0.99995   1.000
    O49     O    0.43726   0.35156   0.91903   1.000
    O50     O    0.56284   0.35152   0.91910   1.000
    O51     O    0.43724   0.35153   0.08082   1.000
    O52     O    0.56274   0.35155   0.08091   1.000
    Zr53    Zr   0.99998   0.62706   0.50005   1.000
    O54     O    0.08094   0.64850   0.56276   1.000
    O55     O    0.91908   0.64852   0.56281   1.000
    O56     O    0.08084   0.64851   0.43727   1.000
    O57     O    0.91905   0.64848   0.43730   1.000
loop_
    _geom_bond_atom_site_label_1
    _geom_bond_atom_site_label_2
    _geom_bond_distance
    _geom_bond_site_symmetry_2
    _ccdc_geom_bond_type
    Zr8    O9        1.98059  1_455   S
    N0     O9        4.98030      .   S
    Zr8    O10       1.98067  1_455   S
    N4     O10       4.98023      .   S
    Zr8    O11       1.98069      .   S
    N1     O11       4.98028      .   S
    Zr8    O12       1.98046      .   S
    N3     O12       4.97994      .   S
    Zr13   O14       1.98147  1_545   S
    N6     O14       4.98266      .   S
    Zr13   O15       1.98171  1_545   S
    N5     O15       4.98353      .   S
    Zr13   O16       1.98150      .   S
    N4     O16       4.98276      .   S
    Zr13   O17       1.98180      .   S
    N1     O17       4.98350      .   S
    Zr18   O19       1.98160      .   S
    N7     O19       4.98237      .   S
    Zr18   O20       1.98155  1_565   S
    N3     O20       4.98296      .   S
    Zr18   O21       1.98173      .   S
    N2     O21       4.98352      .   S
    Zr18   O22       1.98182  1_565   S
    N0     O22       4.98371      .   S
    Zr23   O24       1.98179  1_556   S
    N7     O24       4.98320      .   S
    Zr23   O25       1.98163      .   S
    N5     O25       4.98284      .   S
    Zr23   O26       1.98179      .   S
    N1     O26       4.98336      .   S
    Zr23   O27       1.98144  1_556   S
    N3     O27       4.98238      .   S
    Zr28   O29       1.98124  1_565   S
    N4     O29       4.98197      .   S
    Zr28   O30       1.98137      .   S
    N2     O30       4.98243      .   S
    Zr28   O31       1.98072      .   S
    N6     O31       4.98084      .   S
    Zr28   O32       1.98119  1_565   S
    N0     O32       4.98212      .   S
    Zr33   O34       1.98102  1_545   S
    N7     O34       4.98162      .   S
    Zr33   O35       1.98128      .   S
    N1     O35       4.98219      .   S
    Zr33   O36       1.98101      .   S
    N3     O36       4.98141      .   S
    Zr33   O37       1.98115  1_545   S
    N5     O37       4.98193      .   S
    Zr38   O39       1.98045  1_655   S
    N7     O39       4.97991      .   S
    Zr38   O40       1.98075  1_655   S
    N3     O40       4.98071      .   S
    Zr38   O41       1.98050      .   S
    N2     O41       4.98010      .   S
    Zr38   O42       1.98066      .   S
    N0     O42       4.98014      .   S
    Zr43   O44       1.98076  1_455   S
    N6     O44       4.98043      .   S
    Zr43   O45       1.98055      .   S
    N5     O45       4.98012      .   S
    Zr43   O46       1.98048  1_455   S
    N4     O46       4.98019      .   S
    Zr43   O47       1.98038      .   S
    N1     O47       4.97960      .   S
    Zr48   O49       1.98154      .   S
    N1     O49       4.98312      .   S
    Zr48   O50       1.98117      .   S
    N4     O50       4.98214      .   S
    Zr48   O51       1.98113  1_556   S
    N3     O51       4.98215      .   S
    Zr48   O52       1.98158  1_556   S
    N0     O52       4.98310      .   S
    Zr53   O54       1.98086  1_655   S
    N5     O54       4.98062      .   S
    Zr53   O55       1.98051      .   S
    N6     O55       4.97992      .   S
    Zr53   O56       1.98021  1_655   S
    N7     O56       4.97952      .   S
    Zr53   O57       1.98082      .   S
    N2     O57       4.98061      .   S
