# CIF file generated by openbabel 2.4.90, see http://openbabel.sf.net
data_I
_chemical_name_common ''
_cell_length_a 18.923
_cell_length_b 18.949
_cell_length_c 18.947
_cell_angle_alpha 90
_cell_angle_beta 89.998
_cell_angle_gamma 89.999
_space_group_name_H-M_alt 'P 1'
_space_group_name_Hall 'P 1'
loop_
    _symmetry_equiv_pos_as_xyz
    x,y,z
loop_
    _atom_site_label
    _atom_site_type_symbol
    _atom_site_fract_x
    _atom_site_fract_y
    _atom_site_fract_z
    _atom_site_occupancy
    C0      C    0.99998   0.62706   0.50005   1.000
    C1      C    0.00001   0.37295   0.49990   1.000
    C2      C    0.50014   0.00005   0.62702   1.000
    C3      C    0.49983   0.99994   0.37298   1.000
    C4      C    0.62739   0.49997   0.50000   1.000
    C5      C    0.37258   0.50003   0.99995   1.000
    C6      C    0.62795   0.99997   0.50015   1.000
    C7      C    0.37201   0.00002   0.49985   1.000
    C8      C    0.99992   0.49995   0.37293   1.000
    C9      C    0.00006   0.50006   0.62709   1.000
    C10     C    0.49996   0.62701   0.30000   1.000
    C11     C    0.50002   0.37300   0.99995   1.000
    C12     C    0.86463   0.71769   0.55663   1.000
    C13     C    0.13493   0.28196   0.55685   1.000
    C14     C    0.13529   0.71757   0.44353   1.000
    C15     C    0.86515   0.28175   0.44300   1.000
    C16     C    0.55592   0.86441   0.71710   1.000
    C17     C    0.55537   0.13611   0.28355   1.000
    C18     C    0.44458   0.13626   0.71642   1.000
    C19     C    0.44431   0.86389   0.28337   1.000
    C20     C    0.71771   0.55641   0.86451   1.000
    C21     C    0.28159   0.55697   0.13490   1.000
    C22     C    0.71778   0.44343   0.13559   1.000
    C23     C    0.28186   0.44320   0.86481   1.000
    C24     C    0.71758   0.86404   0.44375   1.000
    C25     C    0.28280   0.13638   0.44406   1.000
    C26     C    0.71793   0.13563   0.55649   1.000
    C27     C    0.28287   0.86365   0.55583   1.000
    C28     C    0.86476   0.55663   0.28221   1.000
    C29     C    0.13525   0.55674   0.71780   1.000
    C30     C    0.13479   0.44309   0.28170   1.000
    C31     C    0.86519   0.44319   0.71810   1.000
    C32     C    0.55633   0.71755   0.13520   1.000
    C33     C    0.55635   0.28257   0.86469   1.000
    C34     C    0.44353   0.71776   0.86504   1.000
    C35     C    0.44352   0.28234   0.13495   1.000
    C36     C    0.13655   0.28355   0.44448   1.000
    C37     C    0.86386   0.71684   0.44425   1.000
    C38     C    0.86346   0.28371   0.55534   1.000
    C39     C    0.13605   0.71700   0.55580   1.000
    C40     C    0.44307   0.13456   0.28185   1.000
    C41     C    0.44364   0.86490   0.71700   1.000
    C42     C    0.55630   0.86470   0.28260   1.000
    C43     C    0.55657   0.13515   0.71763   1.000
    C44     C    0.28289   0.44417   0.13610   1.000
    C45     C    0.71776   0.44362   0.86444   1.000
    C46     C    0.28287   0.55598   0.86370   1.000
    C47     C    0.71742   0.55619   0.13586   1.000
    C48     C    0.28148   0.13508   0.55710   1.000
    C49     C    0.71813   0.86455   0.55681   1.000
    C50     C    0.28115   0.86525   0.44267   1.000
    C51     C    0.71800   0.13547   0.44330   1.000
    C52     C    0.13646   0.44453   0.71652   1.000
    C53     C    0.86344   0.44445   0.28347   1.000
    C54     C    0.86394   0.55576   0.71696   1.000
    C55     C    0.13602   0.55566   0.28316   1.000
    C56     C    0.44423   0.28311   0.86416   1.000
    C57     C    0.44416   0.71685   0.13590   1.000
    C58     C    0.55587   0.28289   0.13560   1.000
    C59     C    0.55591   0.71706   0.86447   1.000
    C60     C    0.76830   0.76826   0.60807   1.000
    C61     C    0.23182   0.23185   0.60782   1.000
    C62     C    0.23154   0.76824   0.39202   1.000
    C63     C    0.76807   0.23179   0.39222   1.000
    C64     C    0.60794   0.76854   0.76869   1.000
    C65     C    0.60769   0.23155   0.23162   1.000
    C66     C    0.39200   0.23140   0.76861   1.000
    C67     C    0.39168   0.76876   0.23118   1.000
    C68     C    0.76828   0.60790   0.76841   1.000
    C69     C    0.23157   0.60790   0.23166   1.000
    C70     C    0.76833   0.39188   0.23161   1.000
    C71     C    0.23164   0.39201   0.76835   1.000
    C72     C    0.76836   0.76834   0.39201   1.000
    C73     C    0.23144   0.23153   0.39172   1.000
    C74     C    0.76864   0.23158   0.60816   1.000
    C75     C    0.23167   0.76843   0.60801   1.000
    C76     C    0.76831   0.60797   0.23167   1.000
    C77     C    0.23171   0.60808   0.76837   1.000
    C78     C    0.23176   0.39216   0.23163   1.000
    C79     C    0.76831   0.39219   0.76826   1.000
    C80     C    0.60784   0.76847   0.23155   1.000
    C81     C    0.60817   0.23137   0.76868   1.000
    C82     C    0.39238   0.76837   0.76828   1.000
    C83     C    0.39216   0.23160   0.23146   1.000
    C84     C    0.87400   0.67261   0.59040   1.000
    C85     C    0.12579   0.32722   0.59053   1.000
    C86     C    0.12592   0.67251   0.40965   1.000
    C87     C    0.87424   0.32705   0.40930   1.000
    C88     C    0.59027   0.87399   0.67241   1.000
    C89     C    0.58982   0.12632   0.32811   1.000
    C90     C    0.41005   0.12636   0.67194   1.000
    C91     C    0.40973   0.87377   0.32780   1.000
    C92     C    0.67267   0.59034   0.87404   1.000
    C93     C    0.32688   0.59066   0.12569   1.000
    C94     C    0.67270   0.40954   0.12607   1.000
    C95     C    0.32708   0.40943   0.87415   1.000
    C96     C    0.67263   0.87378   0.40974   1.000
    C97     C    0.32744   0.12639   0.40973   1.000
    C98     C    0.67298   0.12601   0.59053   1.000
    C99     C    0.32764   0.87359   0.59001   1.000
    C100    C    0.87407   0.59044   0.32734   1.000
    C101    C    0.12594   0.59055   0.67273   1.000
    C102    C    0.12570   0.40944   0.32707   1.000
    C103    C    0.87430   0.40953   0.67282   1.000
    C104    C    0.59037   0.67258   0.12585   1.000
    C105    C    0.59045   0.32748   0.87413   1.000
    C106    C    0.40959   0.67269   0.87424   1.000
    C107    C    0.40957   0.32741   0.12570   1.000
    C108    C    0.12654   0.32802   0.41002   1.000
    C109    C    0.87364   0.67219   0.40996   1.000
    C110    C    0.87348   0.32814   0.58984   1.000
    C111    C    0.12631   0.67232   0.59013   1.000
    C112    C    0.40922   0.12550   0.32704   1.000
    C113    C    0.40967   0.87421   0.67240   1.000
    C114    C    0.59036   0.87412   0.32755   1.000
    C115    C    0.59067   0.12577   0.67270   1.000
    C116    C    0.32764   0.40994   0.12627   1.000
    C117    C    0.67277   0.40962   0.87400   1.000
    C118    C    0.32763   0.59019   0.87364   1.000
    C119    C    0.67254   0.59028   0.12617   1.000
    C120    C    0.32688   0.12581   0.59064   1.000
    C121    C    0.67298   0.87403   0.59064   1.000
    C122    C    0.32655   0.87440   0.40910   1.000
    C123    C    0.67276   0.12603   0.40964   1.000
    C124    C    0.12652   0.41010   0.67201   1.000
    C125    C    0.87343   0.41000   0.32796   1.000
    C126    C    0.87366   0.59003   0.67227   1.000
    C127    C    0.12627   0.58995   0.32783   1.000
    C128    C    0.40987   0.32776   0.87385   1.000
    C129    C    0.40977   0.67224   0.12610   1.000
    C130    C    0.59013   0.32765   0.12606   1.000
    C131    C    0.59016   0.67230   0.87403   1.000
    C132    C    0.77615   0.68471   0.68486   1.000
    C133    C    0.83784   0.65162   0.65173   1.000
    C134    C    0.22384   0.31526   0.68474   1.000
    C135    C    0.16216   0.34837   0.65100   1.000
    C136    C    0.22367   0.68473   0.31518   1.000
    C137    C    0.16208   0.65153   0.34840   1.000
    C138    C    0.77607   0.31519   0.31520   1.000
    C139    C    0.83781   0.34825   0.34836   1.000
    C140    C    0.68476   0.77625   0.68500   1.000
    C141    C    0.65184   0.83801   0.65191   1.000
    C142    C    0.68451   0.22381   0.31531   1.000
    C143    C    0.65152   0.16213   0.34847   1.000
    C144    C    0.31527   0.22376   0.68483   1.000
    C145    C    0.34823   0.16204   0.65170   1.000
    C146    C    0.31498   0.77634   0.31499   1.000
    C147    C    0.34791   0.83809   0.34808   1.000
    C148    C    0.68472   0.68481   0.77630   1.000
    C149    C    0.65167   0.65167   0.83804   1.000
    C150    C    0.31503   0.68490   0.22361   1.000
    C151    C    0.34801   0.65184   0.16186   1.000
    C152    C    0.68460   0.31515   0.22382   1.000
    C153    C    0.65166   0.34822   0.16200   1.000
    C154    C    0.31523   0.31514   0.77628   1.000
    C155    C    0.34821   0.34823   0.83800   1.000
    C156    C    0.68471   0.77625   0.31510   1.000
    C157    C    0.65176   0.83799   0.34826   1.000
    C158    C    0.31518   0.22373   0.31499   1.000
    C159    C    0.34809   0.16195   0.34804   1.000
    C160    C    0.68500   0.22367   0.68500   1.000
    C161    C    0.65209   0.16187   0.65198   1.000
    C162    C    0.31540   0.77624   0.68475   1.000
    C163    C    0.34841   0.83792   0.65160   1.000
    C164    C    0.77616   0.68476   0.31523   1.000
    C165    C    0.83785   0.65164   0.34835   1.000
    C166    C    0.22388   0.68484   0.68477   1.000
    C167    C    0.16212   0.65177   0.65173   1.000
    C168    C    0.22380   0.31528   0.31511   1.000
    C169    C    0.16210   0.34839   0.34822   1.000
    C170    C    0.77630   0.31529   0.68480   1.000
    C171    C    0.83791   0.34849   0.65164   1.000
    C172    C    0.68473   0.68486   0.22374   1.000
    C173    C    0.65172   0.65176   0.16202   1.000
    C174    C    0.68490   0.31514   0.77635   1.000
    C175    C    0.65192   0.34819   0.83810   1.000
    C176    C    0.31537   0.68487   0.77621   1.000
    C177    C    0.34836   0.65178   0.83793   1.000
    C178    C    0.31527   0.31521   0.22365   1.000
    C179    C    0.34833   0.34835   0.16199   1.000
    C180    C    0.74532   0.74532   0.65551   1.000
    C181    C    0.25473   0.25472   0.65533   1.000
    C182    C    0.25448   0.74534   0.34454   1.000
    C183    C    0.74513   0.25469   0.34474   1.000
    C184    C    0.65531   0.74544   0.74500   1.000
    C185    C    0.65510   0.25459   0.25460   1.000
    C186    C    0.34466   0.25452   0.74548   1.000
    C187    C    0.34438   0.74559   0.25434   1.000
    C188    C    0.74529   0.65532   0.74544   1.000
    C189    C    0.25451   0.65537   0.25458   1.000
    C190    C    0.74524   0.34455   0.25467   1.000
    C191    C    0.25466   0.34462   0.74536   1.000
    C192    C    0.74532   0.74535   0.34460   1.000
    C193    C    0.25456   0.25461   0.34440   1.000
    C194    C    0.74556   0.25461   0.65550   1.000
    C195    C    0.25475   0.74540   0.65536   1.000
    C196    C    0.74530   0.65538   0.25465   1.000
    C197    C    0.25474   0.65546   0.74535   1.000
    C198    C    0.25470   0.34470   0.25457   1.000
    C199    C    0.74542   0.34468   0.74538   1.000
    C200    C    0.65528   0.74544   0.25457   1.000
    C201    C    0.65556   0.25446   0.74561   1.000
    C202    C    0.34488   0.74540   0.74532   1.000
    C203    C    0.34469   0.25460   0.25445   1.000
    C204    C    0.92687   0.62704   0.57624   1.000
    C205    C    0.07298   0.37285   0.57625   1.000
    C206    C    0.07308   0.62691   0.42391   1.000
    C207    C    0.92705   0.37268   0.42364   1.000
    C208    C    0.57639   0.92692   0.62688   1.000
    C209    C    0.57583   0.07335   0.37356   1.000
    C210    C    0.42402   0.07337   0.62651   1.000
    C211    C    0.42360   0.92676   0.37300   1.000
    C212    C    0.62715   0.57611   0.92695   1.000
    C213    C    0.37249   0.57636   0.07288   1.000
    C214    C    0.62722   0.42378   0.07313   1.000
    C215    C    0.37264   0.42372   0.92700   1.000
    C216    C    0.62728   0.92678   0.42405   1.000
    C217    C    0.37275   0.07325   0.42379   1.000
    C218    C    0.62754   0.07302   0.57638   1.000
    C219    C    0.37296   0.92663   0.57574   1.000
    C220    C    0.92691   0.57620   0.37294   1.000
    C221    C    0.07305   0.57634   0.62717   1.000
    C222    C    0.07292   0.42370   0.37273   1.000
    C223    C    0.92706   0.42384   0.62714   1.000
    C224    C    0.57627   0.62698   0.07303   1.000
    C225    C    0.57637   0.37304   0.92699   1.000
    C226    C    0.42367   0.62708   0.92706   1.000
    C227    C    0.42371   0.37303   0.07292   1.000
    C228    C    0.07347   0.37344   0.42403   1.000
    C229    C    0.92664   0.62670   0.42401   1.000
    C230    C    0.92652   0.37360   0.57583   1.000
    C231    C    0.07330   0.62684   0.57610   1.000
    C232    C    0.42330   0.07273   0.37270   1.000
    C233    C    0.42385   0.92701   0.62688   1.000
    C234    C    0.57621   0.92697   0.37307   1.000
    C235    C    0.57665   0.07290   0.62714   1.000
    C236    C    0.37308   0.42403   0.07325   1.000
    C237    C    0.62726   0.42379   0.92693   1.000
    C238    C    0.37303   0.57606   0.92668   1.000
    C239    C    0.62708   0.57614   0.07319   1.000
    C240    C    0.37238   0.07299   0.57612   1.000
    C241    C    0.62754   0.92699   0.57638   1.000
    C242    C    0.37211   0.92723   0.42345   1.000
    C243    C    0.62733   0.07314   0.42409   1.000
    C244    C    0.07347   0.42411   0.62656   1.000
    C245    C    0.92652   0.42397   0.37337   1.000
    C246    C    0.92666   0.57601   0.62677   1.000
    C247    C    0.07332   0.57587   0.37338   1.000
    C248    C    0.42384   0.37328   0.92678   1.000
    C249    C    0.42375   0.62675   0.07319   1.000
    C250    C    0.57616   0.37320   0.07316   1.000
    C251    C    0.57612   0.62674   0.92690   1.000
    O252    O    0.39812   0.60155   0.07304   1.000
    O253    O    0.34968   0.58351   0.09928   1.000
    O254    O    0.37253   0.53819   0.03641   1.000
    O255    O    0.39840   0.39853   0.07308   1.000
    O256    O    0.41664   0.35022   0.09931   1.000
    O257    O    0.46187   0.37301   0.03644   1.000
    O258    O    0.60168   0.60156   0.07311   1.000
    O259    O    0.58332   0.64978   0.09944   1.000
    O260    O    0.60169   0.39849   0.07315   1.000
    O261    O    0.64996   0.41666   0.09960   1.000
    O262    O    0.58315   0.35042   0.09961   1.000
    O263    O    0.53809   0.37310   0.03656   1.000
    O264    O    0.41676   0.64949   0.09964   1.000
    O265    O    0.64981   0.58321   0.09968   1.000
    O266    O    0.35036   0.41698   0.09976   1.000
    O267    O    0.37283   0.46203   0.03660   1.000
    O268    O    0.30424   0.57382   0.13029   1.000
    O269    O    0.33745   0.62125   0.14378   1.000
    O270    O    0.42655   0.30488   0.13032   1.000
    O271    O    0.37895   0.33788   0.14385   1.000
    O272    O    0.57335   0.69506   0.13052   1.000
    O273    O    0.62104   0.66217   0.14394   1.000
    O274    O    0.57300   0.30527   0.13083   1.000
    O275    O    0.62090   0.33794   0.14403   1.000
    O276    O    0.69524   0.42649   0.13083   1.000
    O277    O    0.66218   0.37888   0.14403   1.000
    O278    O    0.42696   0.69454   0.13100   1.000
    O279    O    0.37889   0.66204   0.14398   1.000
    O280    O    0.69498   0.57324   0.13101   1.000
    O281    O    0.66213   0.62102   0.14410   1.000
    O282    O    0.30526   0.42705   0.13118   1.000
    O283    O    0.33798   0.37914   0.14413   1.000
    O284    O    0.33152   0.66837   0.19274   1.000
    O285    O    0.33180   0.33178   0.19282   1.000
    O286    O    0.66813   0.33168   0.19291   1.000
    O287    O    0.66822   0.66831   0.19288   1.000
    O288    O    0.32971   0.71525   0.23897   1.000
    O289    O    0.28477   0.67014   0.23910   1.000
    O290    O    0.32998   0.28490   0.23905   1.000
    O291    O    0.28499   0.32995   0.23911   1.000
    O292    O    0.67000   0.71515   0.23915   1.000
    O293    O    0.71502   0.67012   0.23919   1.000
    O294    O    0.66985   0.28487   0.23921   1.000
    O295    O    0.71492   0.32985   0.23924   1.000
    O296    O    0.36803   0.75717   0.24276   1.000
    O297    O    0.36843   0.24310   0.24296   1.000
    O298    O    0.63156   0.75695   0.24306   1.000
    O299    O    0.75679   0.36821   0.24314   1.000
    O300    O    0.63140   0.24307   0.24311   1.000
    O301    O    0.24323   0.36843   0.24310   1.000
    O302    O    0.24304   0.63164   0.24312   1.000
    O303    O    0.75681   0.63167   0.24316   1.000
    O304    O    0.32968   0.76096   0.28467   1.000
    O305    O    0.32994   0.23917   0.28472   1.000
    O306    O    0.66999   0.76084   0.28484   1.000
    O307    O    0.23925   0.32999   0.28484   1.000
    O308    O    0.23909   0.67005   0.28488   1.000
    O309    O    0.66981   0.23920   0.28495   1.000
    O310    O    0.76073   0.67007   0.28494   1.000
    O311    O    0.76066   0.32987   0.28493   1.000
    O312    O    0.13024   0.42626   0.30439   1.000
    O313    O    0.42615   0.13003   0.30445   1.000
    O314    O    0.86942   0.57353   0.30478   1.000
    O315    O    0.57333   0.86941   0.30507   1.000
    O316    O    0.13114   0.57281   0.30550   1.000
    O317    O    0.42702   0.86883   0.30558   1.000
    O318    O    0.86844   0.42722   0.30571   1.000
    O319    O    0.57259   0.13122   0.30583   1.000
    O320    O    0.28487   0.23917   0.32970   1.000
    O321    O    0.33164   0.19284   0.33152   1.000
    O322    O    0.28473   0.76084   0.32977   1.000
    O323    O    0.33145   0.80722   0.33153   1.000
    O324    O    0.71502   0.76080   0.32985   1.000
    O325    O    0.66824   0.80712   0.33168   1.000
    O326    O    0.23918   0.28494   0.32975   1.000
    O327    O    0.19295   0.33183   0.33166   1.000
    O328    O    0.23908   0.71503   0.32986   1.000
    O329    O    0.19287   0.66813   0.33179   1.000
    O330    O    0.76060   0.28494   0.32997   1.000
    O331    O    0.80694   0.33172   0.33178   1.000
    O332    O    0.76074   0.71506   0.32991   1.000
    O333    O    0.80701   0.66820   0.33179   1.000
    O334    O    0.71482   0.23925   0.33002   1.000
    O335    O    0.66801   0.19297   0.33189   1.000
    O336    O    0.37866   0.14373   0.33754   1.000
    O337    O    0.41626   0.09912   0.34987   1.000
    O338    O    0.14390   0.37891   0.33765   1.000
    O339    O    0.09931   0.41657   0.34990   1.000
    O340    O    0.85596   0.62104   0.33785   1.000
    O341    O    0.90049   0.58332   0.35014   1.000
    O342    O    0.62106   0.85605   0.33791   1.000
    O343    O    0.58329   0.90054   0.35031   1.000
    O344    O    0.37882   0.85593   0.33794   1.000
    O345    O    0.41667   0.90026   0.35040   1.000
    O346    O    0.14417   0.62074   0.33811   1.000
    O347    O    0.09980   0.58291   0.35060   1.000
    O348    O    0.85562   0.37912   0.33816   1.000
    O349    O    0.89998   0.41699   0.35067   1.000
    O350    O    0.62067   0.14423   0.33829   1.000
    O351    O    0.58283   0.09984   0.35084   1.000
    O352    O    0.24300   0.24307   0.36806   1.000
    O353    O    0.24301   0.75679   0.36828   1.000
    O354    O    0.75684   0.75685   0.36831   1.000
    O355    O    0.75660   0.24324   0.36848   1.000
    O356    O    0.33777   0.14417   0.37888   1.000
    O357    O    0.33723   0.85625   0.37859   1.000
    O358    O    0.14432   0.33820   0.37912   1.000
    O359    O    0.66220   0.85589   0.37900   1.000
    O360    O    0.85574   0.66191   0.37915   1.000
    O361    O    0.85603   0.33765   0.37883   1.000
    O362    O    0.14400   0.66202   0.37903   1.000
    O363    O    0.66214   0.14408   0.37906   1.000
    O364    O    0.46156   0.03634   0.37284   1.000
    O365    O    0.39802   0.07299   0.39824   1.000
    O366    O    0.03642   0.46183   0.37283   1.000
    O367    O    0.07319   0.39857   0.39838   1.000
    O368    O    0.96342   0.53808   0.37294   1.000
    O369    O    0.96322   0.46196   0.37315   1.000
    O370    O    0.03662   0.53791   0.37315   1.000
    O371    O    0.92678   0.60145   0.39848   1.000
    O372    O    0.46171   0.96335   0.37299   1.000
    O373    O    0.53802   0.96346   0.37302   1.000
    O374    O    0.53783   0.03665   0.37327   1.000
    O375    O    0.39786   0.92699   0.39822   1.000
    O376    O    0.60174   0.92688   0.39856   1.000
    O377    O    0.92679   0.39833   0.39850   1.000
    O378    O    0.07320   0.60139   0.39864   1.000
    O379    O    0.60158   0.07324   0.39882   1.000
    O380    O    0.34933   0.90082   0.41628   1.000
    O381    O    0.30385   0.86982   0.42589   1.000
    O382    O    0.90065   0.34987   0.41647   1.000
    O383    O    0.86970   0.30440   0.42615   1.000
    O384    O    0.65004   0.09958   0.41687   1.000
    O385    O    0.69538   0.13075   0.42647   1.000
    O386    O    0.09950   0.64971   0.41678   1.000
    O387    O    0.13061   0.69504   0.42659   1.000
    O388    O    0.35010   0.09982   0.41676   1.000
    O389    O    0.30512   0.13138   0.42689   1.000
    O390    O    0.64996   0.90028   0.41689   1.000
    O391    O    0.69511   0.86891   0.42674   1.000
    O392    O    0.90014   0.64944   0.41699   1.000
    O393    O    0.86875   0.69451   0.42710   1.000
    O394    O    0.10000   0.35073   0.41702   1.000
    O395    O    0.13154   0.30578   0.42725   1.000
    O396    O    0.37206   0.96362   0.46165   1.000
    O397    O    0.96353   0.37282   0.46177   1.000
    O398    O    0.37238   0.03664   0.46182   1.000
    O399    O    0.03653   0.62698   0.46198   1.000
    O400    O    0.96331   0.62688   0.46203   1.000
    O401    O    0.03674   0.37320   0.46197   1.000
    O402    O    0.62761   0.96338   0.46210   1.000
    O403    O    0.62764   0.03655   0.46212   1.000
    O404    O    0.37249   0.96332   0.53780   1.000
    O405    O    0.37219   0.03650   0.53798   1.000
    O406    O    0.96327   0.37327   0.53787   1.000
    O407    O    0.03650   0.37290   0.53807   1.000
    O408    O    0.03664   0.62695   0.53807   1.000
    O409    O    0.96343   0.62705   0.53814   1.000
    O410    O    0.62775   0.03649   0.53826   1.000
    O411    O    0.62775   0.96348   0.53826   1.000
    O412    O    0.86847   0.30592   0.57259   1.000
    O413    O    0.13118   0.69466   0.57297   1.000
    O414    O    0.30525   0.86862   0.57292   1.000
    O415    O    0.69545   0.13082   0.57351   1.000
    O416    O    0.86931   0.69515   0.57352   1.000
    O417    O    0.69555   0.86929   0.57373   1.000
    O418    O    0.13036   0.30459   0.57369   1.000
    O419    O    0.30418   0.13044   0.57387   1.000
    O420    O    0.35030   0.90011   0.58288   1.000
    O421    O    0.39840   0.92682   0.60131   1.000
    O422    O    0.90000   0.35087   0.58283   1.000
    O423    O    0.92679   0.39872   0.60148   1.000
    O424    O    0.09981   0.64958   0.58312   1.000
    O425    O    0.07317   0.60159   0.60163   1.000
    O426    O    0.34963   0.09940   0.58338   1.000
    O427    O    0.39820   0.07318   0.60131   1.000
    O428    O    0.90044   0.64983   0.58332   1.000
    O429    O    0.92677   0.60153   0.60150   1.000
    O430    O    0.09938   0.35003   0.58339   1.000
    O431    O    0.07322   0.39848   0.60140   1.000
    O432    O    0.65026   0.09951   0.58345   1.000
    O433    O    0.60210   0.07296   0.60176   1.000
    O434    O    0.65026   0.90051   0.58351   1.000
    O435    O    0.60196   0.92695   0.60163   1.000
    O436    O    0.85570   0.33832   0.62074   1.000
    O437    O    0.33802   0.85575   0.62080   1.000
    O438    O    0.14422   0.66205   0.62093   1.000
    O439    O    0.85592   0.66211   0.62106   1.000
    O440    O    0.14397   0.33779   0.62077   1.000
    O441    O    0.66253   0.14394   0.62126   1.000
    O442    O    0.66241   0.85602   0.62128   1.000
    O443    O    0.33756   0.14392   0.62117   1.000
    O444    O    0.24328   0.24328   0.63158   1.000
    O445    O    0.24321   0.75691   0.63169   1.000
    O446    O    0.75681   0.75679   0.63179   1.000
    O447    O    0.75710   0.24310   0.63183   1.000
    O448    O    0.46208   0.03671   0.62677   1.000
    O449    O    0.41704   0.09986   0.64922   1.000
    O450    O    0.03676   0.46208   0.62682   1.000
    O451    O    0.09999   0.41711   0.64929   1.000
    O452    O    0.96336   0.53803   0.62693   1.000
    O453    O    0.90016   0.58302   0.64952   1.000
    O454    O    0.53827   0.96348   0.62695   1.000
    O455    O    0.58333   0.90045   0.64965   1.000
    O456    O    0.46200   0.96353   0.62695   1.000
    O457    O    0.41676   0.90061   0.64964   1.000
    O458    O    0.53840   0.03647   0.62708   1.000
    O459    O    0.96356   0.46195   0.62712   1.000
    O460    O    0.03656   0.53820   0.62713   1.000
    O461    O    0.58366   0.09933   0.64992   1.000
    O462    O    0.90068   0.41669   0.64998   1.000
    O463    O    0.09949   0.58344   0.64995   1.000
    O464    O    0.14434   0.37924   0.66151   1.000
    O465    O    0.19300   0.33182   0.66787   1.000
    O466    O    0.37904   0.85606   0.66200   1.000
    O467    O    0.33191   0.80708   0.66817   1.000
    O468    O    0.85610   0.37901   0.66223   1.000
    O469    O    0.80710   0.33189   0.66822   1.000
    O470    O    0.37914   0.14420   0.66182   1.000
    O471    O    0.33175   0.19290   0.66826   1.000
    O472    O    0.14403   0.62116   0.66223   1.000
    O473    O    0.19300   0.66830   0.66825   1.000
    O474    O    0.85575   0.62083   0.66200   1.000
    O475    O    0.80700   0.66816   0.66829   1.000
    O476    O    0.62106   0.85600   0.66216   1.000
    O477    O    0.66830   0.80713   0.66846   1.000
    O478    O    0.62138   0.14382   0.66234   1.000
    O479    O    0.66855   0.19277   0.66849   1.000
    O480    O    0.23929   0.28499   0.67004   1.000
    O481    O    0.28500   0.23924   0.67008   1.000
    O482    O    0.28507   0.76082   0.67006   1.000
    O483    O    0.23931   0.71512   0.67007   1.000
    O484    O    0.76093   0.28495   0.67015   1.000
    O485    O    0.71528   0.23914   0.67025   1.000
    O486    O    0.76074   0.71501   0.67018   1.000
    O487    O    0.71504   0.76078   0.67026   1.000
    O488    O    0.42731   0.13131   0.69418   1.000
    O489    O    0.13149   0.42732   0.69427   1.000
    O490    O    0.86880   0.57290   0.69461   1.000
    O491    O    0.42665   0.86955   0.69470   1.000
    O492    O    0.57310   0.86920   0.69475   1.000
    O493    O    0.57362   0.13046   0.69517   1.000
    O494    O    0.13060   0.57364   0.69527   1.000
    O495    O    0.86974   0.42636   0.69546   1.000
    O496    O    0.23925   0.32994   0.71505   1.000
    O497    O    0.33014   0.76082   0.71504   1.000
    O498    O    0.23931   0.67015   0.71506   1.000
    O499    O    0.76086   0.32998   0.71509   1.000
    O500    O    0.32997   0.23914   0.71515   1.000
    O501    O    0.76072   0.67002   0.71515   1.000
    O502    O    0.67004   0.76085   0.71500   1.000
    O503    O    0.67028   0.23906   0.71531   1.000
    O504    O    0.63163   0.75699   0.75684   1.000
    O505    O    0.67002   0.71513   0.76065   1.000
    O506    O    0.36863   0.75688   0.75680   1.000
    O507    O    0.33013   0.71514   0.76077   1.000
    O508    O    0.24322   0.63176   0.75686   1.000
    O509    O    0.28506   0.67016   0.76078   1.000
    O510    O    0.24315   0.36832   0.75686   1.000
    O511    O    0.28495   0.32988   0.76082   1.000
    O512    O    0.75686   0.36844   0.75682   1.000
    O513    O    0.71516   0.32991   0.76087   1.000
    O514    O    0.75678   0.63161   0.75692   1.000
    O515    O    0.71500   0.67007   0.76087   1.000
    O516    O    0.36833   0.24296   0.75704   1.000
    O517    O    0.32995   0.28483   0.76088   1.000
    O518    O    0.63187   0.24292   0.75715   1.000
    O519    O    0.67023   0.28480   0.76098   1.000
    O520    O    0.33187   0.66832   0.80707   1.000
    O521    O    0.33172   0.33168   0.80714   1.000
    O522    O    0.66820   0.66824   0.80717   1.000
    O523    O    0.66841   0.33166   0.80722   1.000
    O524    O    0.33800   0.62098   0.85578   1.000
    O525    O    0.37898   0.66223   0.85608   1.000
    O526    O    0.37904   0.33799   0.85593   1.000
    O527    O    0.33765   0.37883   0.85608   1.000
    O528    O    0.62092   0.66198   0.85603   1.000
    O529    O    0.66217   0.62101   0.85604   1.000
    O530    O    0.66235   0.37890   0.85605   1.000
    O531    O    0.62118   0.33783   0.85611   1.000
    O532    O    0.30525   0.57308   0.86867   1.000
    O533    O    0.42705   0.30544   0.86901   1.000
    O534    O    0.69527   0.42662   0.86922   1.000
    O535    O    0.57303   0.69468   0.86925   1.000
    O536    O    0.69519   0.57338   0.86927   1.000
    O537    O    0.57340   0.30503   0.86941   1.000
    O538    O    0.30447   0.42632   0.86948   1.000
    O539    O    0.42656   0.69523   0.86964   1.000
    O540    O    0.35033   0.58313   0.90016   1.000
    O541    O    0.41686   0.35052   0.90031   1.000
    O542    O    0.65002   0.41670   0.90047   1.000
    O543    O    0.58314   0.64952   0.90046   1.000
    O544    O    0.64991   0.58323   0.90050   1.000
    O545    O    0.58341   0.35026   0.90056   1.000
    O546    O    0.34986   0.41658   0.90058   1.000
    O547    O    0.41663   0.64988   0.90065   1.000
    O548    O    0.39835   0.60157   0.92687   1.000
    O549    O    0.37281   0.53805   0.96331   1.000
    O550    O    0.39824   0.39850   0.92689   1.000
    O551    O    0.46193   0.37314   0.96337   1.000
    O552    O    0.60164   0.60142   0.92693   1.000
    O553    O    0.60181   0.39841   0.92696   1.000
    O554    O    0.53820   0.37302   0.96347   1.000
    O555    O    0.37261   0.46187   0.96347   1.000
loop_
    _geom_bond_atom_site_label_1
    _geom_bond_atom_site_label_2
    _geom_bond_distance
    _geom_bond_site_symmetry_2
    _ccdc_geom_bond_type
    C213   O252      0.68060      .   S
    C249   O252      0.68060      .   S
    C213   O253      0.67443      .   S
    C93    O253      0.67443      .   S
    C213   O254      1.00017      .   S
    C5     O254      1.00017  1_556   S
    C227   O255      0.68047      .   S
    C236   O255      0.68047      .   S
    C227   O256      0.67434      .   S
    C107   O256      0.67434      .   S
    C227   O257      0.99956      .   S
    C11    O257      0.99956  1_556   S
    C224   O258      0.68051      .   S
    C239   O258      0.68051      .   S
    C224   O259      0.67435      .   S
    C104   O259      0.67435      .   S
    C214   O260      0.68048      .   S
    C250   O260      0.68048      .   S
    C214   O261      0.67447      .   S
    C94    O261      0.67447      .   S
    C250   O262      0.67440      .   S
    C130   O262      0.67440      .   S
    C250   O263      1.00003      .   S
    C11    O263      1.00003  1_556   S
    C249   O264      0.67413      .   S
    C129   O264      0.67413      .   S
    C239   O265      0.67446      .   S
    C119   O265      0.67446      .   S
    C236   O266      0.67451      .   S
    C116   O266      0.67451      .   S
    C236   O267      1.00034      .   S
    C5     O267      1.00034  1_556   S
    C93    O268      0.54142      .   S
    C21    O268      0.54142      .   S
    C93    O269      0.70243      .   S
    C151   O269      0.70243      .   S
    C107   O270      0.54141      .   S
    C35    O270      0.54141      .   S
    C107   O271      0.70234      .   S
    C179   O271      0.70234      .   S
    C104   O272      0.54140      .   S
    C32    O272      0.54140      .   S
    C104   O273      0.70234      .   S
    C173   O273      0.70234      .   S
    C130   O274      0.54139      .   S
    C58    O274      0.54139      .   S
    C130   O275      0.70207      .   S
    C153   O275      0.70207      .   S
    C94    O276      0.54144      .   S
    C22    O276      0.54144      .   S
    C94    O277      0.70217      .   S
    C153   O277      0.70217      .   S
    C129   O278      0.54144      .   S
    C57    O278      0.54144      .   S
    C129   O279      0.70250      .   S
    C151   O279      0.70250      .   S
    C119   O280      0.54144      .   S
    C47    O280      0.54144      .   S
    C119   O281      0.70244      .   S
    C173   O281      0.70244      .   S
    C116   O282      0.54140      .   S
    C44    O282      0.54140      .   S
    C116   O283      0.70239      .   S
    C179   O283      0.70239      .   S
    C151   O284      0.73326      .   S
    C150   O284      0.73326      .   S
    C179   O285      0.73321      .   S
    C178   O285      0.73321      .   S
    C153   O286      0.73369      .   S
    C152   O286      0.73369      .   S
    C173   O287      0.73331      .   S
    C172   O287      0.73331      .   S
    C150   O288      0.70173      .   S
    C187   O288      0.70173      .   S
    C150   O289      0.70164      .   S
    C189   O289      0.70164      .   S
    C178   O290      0.70173      .   S
    C203   O290      0.70173      .   S
    C178   O291      0.70162      .   S
    C198   O291      0.70162      .   S
    C172   O292      0.70171      .   S
    C200   O292      0.70171      .   S
    C172   O293      0.70161      .   S
    C196   O293      0.70161      .   S
    C152   O294      0.70144      .   S
    C185   O294      0.70144      .   S
    C152   O295      0.70163      .   S
    C190   O295      0.70163      .   S
    C67    O296      0.54463      .   S
    C187   O296      0.54463      .   S
    C83    O297      0.54462      .   S
    C203   O297      0.54462      .   S
    C80    O298      0.54461      .   S
    C200   O298      0.54461      .   S
    C70    O299      0.54457      .   S
    C190   O299      0.54457      .   S
    C65    O300      0.54437      .   S
    C185   O300      0.54437      .   S
    C78    O301      0.54458      .   S
    C198   O301      0.54458      .   S
    C69    O302      0.54457      .   S
    C189   O302      0.54457      .   S
    C76    O303      0.54457      .   S
    C196   O303      0.54457      .   S
    C187   O304      0.70167      .   S
    C146   O304      0.70167      .   S
    C203   O305      0.70171      .   S
    C158   O305      0.70171      .   S
    C200   O306      0.70116      .   S
    C156   O306      0.70116      .   S
    C198   O307      0.70152      .   S
    C168   O307      0.70152      .   S
    C189   O308      0.70146      .   S
    C136   O308      0.70146      .   S
    C185   O309      0.70233      .   S
    C142   O309      0.70233      .   S
    C196   O310      0.70151      .   S
    C164   O310      0.70151      .   S
    C190   O311      0.70092      .   S
    C138   O311      0.70092      .   S
    C30    O312      0.54201      .   S
    C102   O312      0.54201      .   S
    C40    O313      0.54147      .   S
    C112   O313      0.54147      .   S
    C28    O314      0.54146      .   S
    C100   O314      0.54146      .   S
    C42    O315      0.54142      .   S
    C114   O315      0.54142      .   S
    C55    O316      0.54138      .   S
    C127   O316      0.54138      .   S
    C19    O317      0.54123      .   S
    C91    O317      0.54123      .   S
    C53    O318      0.54137      .   S
    C125   O318      0.54137      .   S
    C17    O319      0.54138      .   S
    C89    O319      0.54138      .   S
    C158   O320      0.70154      .   S
    C193   O320      0.70154      .   S
    C158   O321      0.73326      .   S
    C159   O321      0.73326      .   S
    C146   O322      0.70161      .   S
    C182   O322      0.70161      .   S
    C146   O323      0.73328      .   S
    C147   O323      0.73328      .   S
    C156   O324      0.70185      .   S
    C192   O324      0.70185      .   S
    C156   O325      0.73355      .   S
    C157   O325      0.73355      .   S
    C168   O326      0.70148      .   S
    C193   O326      0.70148      .   S
    C168   O327      0.73317      .   S
    C169   O327      0.73317      .   S
    C136   O328      0.70154      .   S
    C182   O328      0.70154      .   S
    C136   O329      0.73318      .   S
    C137   O329      0.73318      .   S
    C138   O330      0.70181      .   S
    C183   O330      0.70181      .   S
    C138   O331      0.73351      .   S
    C139   O331      0.73351      .   S
    C164   O332      0.70148      .   S
    C192   O332      0.70148      .   S
    C164   O333      0.73320      .   S
    C165   O333      0.73320      .   S
    C142   O334      0.70164      .   S
    C183   O334      0.70164      .   S
    C142   O335      0.73323      .   S
    C143   O335      0.73323      .   S
    C112   O336      0.70236      .   S
    C159   O336      0.70236      .   S
    C112   O337      0.67440      .   S
    C232   O337      0.67440      .   S
    C102   O338      0.70234      .   S
    C169   O338      0.70234      .   S
    C102   O339      0.67437      .   S
    C222   O339      0.67437      .   S
    C100   O340      0.70231      .   S
    C165   O340      0.70231      .   S
    C100   O341      0.67440      .   S
    C220   O341      0.67440      .   S
    C114   O342      0.70222      .   S
    C157   O342      0.70222      .   S
    C114   O343      0.67427      .   S
    C234   O343      0.67427      .   S
    C91    O344      0.70236      .   S
    C147   O344      0.70236      .   S
    C91    O345      0.67277      .   S
    C211   O345      0.67277      .   S
    C127   O346      0.70232      .   S
    C137   O346      0.70232      .   S
    C127   O347      0.67449      .   S
    C247   O347      0.67449      .   S
    C125   O348      0.70229      .   S
    C139   O348      0.70229      .   S
    C125   O349      0.67452      .   S
    C245   O349      0.67452      .   S
    C89    O350      0.70222      .   S
    C143   O350      0.70222      .   S
    C89    O351      0.67434      .   S
    C209   O351      0.67434      .   S
    C193   O352      0.54465      .   S
    C73    O352      0.54465      .   S
    C182   O353      0.54452      .   S
    C62    O353      0.54452      .   S
    C192   O354      0.54471      .   S
    C72    O354      0.54471      .   S
    C183   O355      0.54454      .   S
    C63    O355      0.54454      .   S
    C159   O356      0.70232      .   S
    C97    O356      0.70232      .   S
    C147   O357      0.70239      .   S
    C122   O357      0.70239      .   S
    C169   O358      0.70231      .   S
    C108   O358      0.70231      .   S
    C157   O359      0.70231      .   S
    C96    O359      0.70231      .   S
    C165   O360      0.70229      .   S
    C109   O360      0.70229      .   S
    C139   O361      0.70176      .   S
    C87    O361      0.70176      .   S
    C137   O362      0.70228      .   S
    C86    O362      0.70228      .   S
    C143   O363      0.70230      .   S
    C123   O363      0.70230      .   S
    C232   O364      0.99996      .   S
    C3     O364      0.99996  1_565   S
    C232   O365      0.68043      .   S
    C217   O365      0.68043      .   S
    C222   O366      0.99945      .   S
    C8     O366      0.99945  1_655   S
    C222   O367      0.68040      .   S
    C228   O367      0.68040      .   S
    C8     O368      0.99956      .   S
    C220   O368      0.99956      .   S
    C8     O369      1.00027      .   S
    C245   O369      1.00027      .   S
    C8     O370      0.99983  1_655   S
    C247   O370      0.99983      .   S
    C220   O371      0.68041      .   S
    C229   O371      0.68041      .   S
    C3     O372      1.00049      .   S
    C211   O372      1.00049      .   S
    C3     O373      1.00016      .   S
    C234   O373      1.00016      .   S
    C3     O374      1.00046  1_565   S
    C209   O374      1.00046      .   S
    C211   O375      0.68246      .   S
    C242   O375      0.68246      .   S
    C234   O376      0.68314      .   S
    C216   O376      0.68314      .   S
    C245   O377      0.68042      .   S
    C207   O377      0.68042      .   S
    C247   O378      0.68042      .   S
    C206   O378      0.68042      .   S
    C209   O379      0.68306      .   S
    C243   O379      0.68306      .   S
    C122   O380      0.67439      .   S
    C242   O380      0.67439      .   S
    C122   O381      0.54149      .   S
    C50    O381      0.54149      .   S
    C87    O382      0.67456      .   S
    C207   O382      0.67456      .   S
    C87    O383      0.54177      .   S
    C15    O383      0.54177      .   S
    C123   O384      0.67426      .   S
    C243   O384      0.67426      .   S
    C123   O385      0.54127      .   S
    C51    O385      0.54127      .   S
    C86    O386      0.67443      .   S
    C206   O386      0.67443      .   S
    C86    O387      0.54142      .   S
    C14    O387      0.54142      .   S
    C97    O388      0.67447      .   S
    C217   O388      0.67447      .   S
    C97    O389      0.54145      .   S
    C25    O389      0.54145      .   S
    C96    O390      0.67432      .   S
    C216   O390      0.67432      .   S
    C96    O391      0.54147      .   S
    C24    O391      0.54147      .   S
    C109   O392      0.67450      .   S
    C229   O392      0.67450      .   S
    C109   O393      0.54138      .   S
    C37    O393      0.54138      .   S
    C108   O394      0.67449      .   S
    C228   O394      0.67449      .   S
    C108   O395      0.54134      .   S
    C36    O395      0.54134      .   S
    C242   O396      0.99974      .   S
    C7     O396      0.99974  1_545   S
    C207   O397      0.99927      .   S
    C1     O397      0.99927  1_455   S
    C217   O398      1.00034      .   S
    C7     O398      1.00034      .   S
    C206   O399      0.99935      .   S
    C0     O399      0.99935  1_655   S
    C229   O400      1.00023      .   S
    C0     O400      1.00023      .   S
    C228   O401      0.99981      .   S
    C1     O401      0.99981      .   S
    C216   O402      1.00029      .   S
    C6     O402      1.00029      .   S
    C243   O403      0.99989      .   S
    C6     O403      0.99989  1_565   S
    C7     O404      1.00024  1_545   S
    C219   O404      1.00024      .   S
    C7     O405      1.00001      .   S
    C240   O405      1.00001      .   S
    C1     O406      1.00046  1_455   S
    C230   O406      1.00046      .   S
    C1     O407      0.99990      .   S
    C205   O407      0.99990      .   S
    C0     O408      1.00020  1_655   S
    C231   O408      1.00020      .   S
    C0     O409      0.99968      .   S
    C204   O409      0.99968      .   S
    C6     O410      1.00026  1_565   S
    C218   O410      1.00026      .   S
    C6     O411      0.99981      .   S
    C241   O411      0.99981      .   S
    C38    O412      0.54133      .   S
    C110   O412      0.54133      .   S
    C39    O413      0.54174      .   S
    C111   O413      0.54174      .   S
    C27    O414      0.54144      .   S
    C99    O414      0.54144      .   S
    C26    O415      0.54147      .   S
    C98    O415      0.54147      .   S
    C12    O416      0.54098      .   S
    C84    O416      0.54098      .   S
    C49    O417      0.54149      .   S
    C121   O417      0.54149      .   S
    C13    O418      0.54145      .   S
    C85    O418      0.54145      .   S
    C48    O419      0.54151      .   S
    C120   O419      0.54151      .   S
    C219   O420      0.67431      .   S
    C99    O420      0.67431      .   S
    C219   O421      0.68306      .   S
    C233   O421      0.68306      .   S
    C230   O422      0.67449      .   S
    C110   O422      0.67449      .   S
    C230   O423      0.68040      .   S
    C223   O423      0.68040      .   S
    C231   O424      0.67449      .   S
    C111   O424      0.67449      .   S
    C231   O425      0.68045      .   S
    C221   O425      0.68045      .   S
    C240   O426      0.67425      .   S
    C120   O426      0.67425      .   S
    C240   O427      0.68316      .   S
    C210   O427      0.68316      .   S
    C204   O428      0.67427      .   S
    C84    O428      0.67427      .   S
    C204   O429      0.68041      .   S
    C246   O429      0.68041      .   S
    C205   O430      0.67443      .   S
    C85    O430      0.67443      .   S
    C205   O431      0.68046      .   S
    C244   O431      0.68046      .   S
    C218   O432      0.67444      .   S
    C98    O432      0.67444      .   S
    C218   O433      0.68049      .   S
    C235   O433      0.68049      .   S
    C241   O434      0.67441      .   S
    C121   O434      0.67441      .   S
    C241   O435      0.68054      .   S
    C208   O435      0.68054      .   S
    C110   O436      0.70232      .   S
    C171   O436      0.70232      .   S
    C99    O437      0.70233      .   S
    C163   O437      0.70233      .   S
    C111   O438      0.70234      .   S
    C167   O438      0.70234      .   S
    C84    O439      0.70293      .   S
    C133   O439      0.70293      .   S
    C85    O440      0.69771      .   S
    C135   O440      0.69771      .   S
    C98    O441      0.70243      .   S
    C161   O441      0.70243      .   S
    C121   O442      0.70241      .   S
    C141   O442      0.70241      .   S
    C120   O443      0.70233      .   S
    C145   O443      0.70233      .   S
    C61    O444      0.54455      .   S
    C181   O444      0.54455      .   S
    C75    O445      0.54453      .   S
    C195   O445      0.54453      .   S
    C60    O446      0.54452      .   S
    C180   O446      0.54452      .   S
    C74    O447      0.54442      .   S
    C194   O447      0.54442      .   S
    C210   O448      1.00064      .   S
    C2     O448      1.00064      .   S
    C210   O449      0.67437      .   S
    C90    O449      0.67437      .   S
    C244   O450      1.00007      .   S
    C9     O450      1.00007      .   S
    C244   O451      0.67452      .   S
    C124   O451      0.67452      .   S
    C246   O452      1.00009      .   S
    C9     O452      1.00009  1_455   S
    C246   O453      0.67445      .   S
    C126   O453      0.67445      .   S
    C208   O454      1.00022      .   S
    C2     O454      1.00022  1_545   S
    C208   O455      0.67440      .   S
    C88    O455      0.67440      .   S
    C233   O456      1.00003      .   S
    C2     O456      1.00003  1_545   S
    C233   O457      0.67396      .   S
    C113   O457      0.67396      .   S
    C2     O458      1.00016      .   S
    C235   O458      1.00016      .   S
    C9     O459      0.99931  1_455   S
    C223   O459      0.99931      .   S
    C9     O460      0.99958      .   S
    C221   O460      0.99958      .   S
    C235   O461      0.67440      .   S
    C115   O461      0.67440      .   S
    C223   O462      0.67437      .   S
    C103   O462      0.67437      .   S
    C221   O463      0.67443      .   S
    C101   O463      0.67443      .   S
    C135   O464      0.70386      .   S
    C124   O464      0.70386      .   S
    C135   O465      0.73562      .   S
    C134   O465      0.73562      .   S
    C163   O466      0.70209      .   S
    C113   O466      0.70209      .   S
    C163   O467      0.73324      .   S
    C162   O467      0.73324      .   S
    C171   O468      0.70234      .   S
    C103   O468      0.70234      .   S
    C171   O469      0.73309      .   S
    C170   O469      0.73309      .   S
    C145   O470      0.70223      .   S
    C90    O470      0.70223      .   S
    C145   O471      0.73328      .   S
    C144   O471      0.73328      .   S
    C167   O472      0.70233      .   S
    C101   O472      0.70233      .   S
    C167   O473      0.73319      .   S
    C166   O473      0.73319      .   S
    C133   O474      0.70231      .   S
    C126   O474      0.70231      .   S
    C133   O475      0.73315      .   S
    C132   O475      0.73315      .   S
    C141   O476      0.70231      .   S
    C88    O476      0.70231      .   S
    C141   O477      0.73326      .   S
    C140   O477      0.73326      .   S
    C161   O478      0.70232      .   S
    C115   O478      0.70232      .   S
    C161   O479      0.73322      .   S
    C160   O479      0.73322      .   S
    C181   O480      0.70150      .   S
    C134   O480      0.70150      .   S
    C181   O481      0.70162      .   S
    C144   O481      0.70162      .   S
    C195   O482      0.70164      .   S
    C162   O482      0.70164      .   S
    C195   O483      0.70153      .   S
    C166   O483      0.70153      .   S
    C194   O484      0.70154      .   S
    C170   O484      0.70154      .   S
    C194   O485      0.70165      .   S
    C160   O485      0.70165      .   S
    C180   O486      0.70151      .   S
    C132   O486      0.70151      .   S
    C180   O487      0.70161      .   S
    C140   O487      0.70161      .   S
    C90    O488      0.54138      .   S
    C18    O488      0.54138      .   S
    C124   O489      0.54133      .   S
    C52    O489      0.54133      .   S
    C126   O490      0.54140      .   S
    C54    O490      0.54140      .   S
    C113   O491      0.53817      .   S
    C41    O491      0.53817      .   S
    C88    O492      0.54138      .   S
    C16    O492      0.54138      .   S
    C115   O493      0.54145      .   S
    C43    O493      0.54145      .   S
    C101   O494      0.54100      .   S
    C29    O494      0.54100      .   S
    C103   O495      0.54141      .   S
    C31    O495      0.54141      .   S
    C134   O496      0.70159      .   S
    C191   O496      0.70159      .   S
    C162   O497      0.70176      .   S
    C202   O497      0.70176      .   S
    C166   O498      0.70152      .   S
    C197   O498      0.70152      .   S
    C170   O499      0.70163      .   S
    C199   O499      0.70163      .   S
    C144   O500      0.70171      .   S
    C186   O500      0.70171      .   S
    C132   O501      0.70153      .   S
    C188   O501      0.70153      .   S
    C140   O502      0.69708      .   S
    C184   O502      0.69708      .   S
    C160   O503      0.70172      .   S
    C201   O503      0.70172      .   S
    C184   O504      0.54692      .   S
    C64    O504      0.54692      .   S
    C184   O505      0.70380      .   S
    C148   O505      0.70380      .   S
    C202   O506      0.54462      .   S
    C82    O506      0.54462      .   S
    C202   O507      0.70173      .   S
    C176   O507      0.70173      .   S
    C197   O508      0.54458      .   S
    C77    O508      0.54458      .   S
    C197   O509      0.70162      .   S
    C176   O509      0.70162      .   S
    C191   O510      0.54454      .   S
    C71    O510      0.54454      .   S
    C191   O511      0.70161      .   S
    C154   O511      0.70161      .   S
    C199   O512      0.54457      .   S
    C79    O512      0.54457      .   S
    C199   O513      0.70160      .   S
    C174   O513      0.70160      .   S
    C188   O514      0.54456      .   S
    C68    O514      0.54456      .   S
    C188   O515      0.70135      .   S
    C148   O515      0.70135      .   S
    C186   O516      0.54463      .   S
    C66    O516      0.54463      .   S
    C186   O517      0.70176      .   S
    C154   O517      0.70176      .   S
    C201   O518      0.54462      .   S
    C81    O518      0.54462      .   S
    C201   O519      0.70172      .   S
    C174   O519      0.70172      .   S
    C176   O520      0.73324      .   S
    C177   O520      0.73324      .   S
    C154   O521      0.73318      .   S
    C155   O521      0.73318      .   S
    C148   O522      0.73382      .   S
    C149   O522      0.73382      .   S
    C174   O523      0.73322      .   S
    C175   O523      0.73322      .   S
    C177   O524      0.70242      .   S
    C118   O524      0.70242      .   S
    C177   O525      0.70231      .   S
    C106   O525      0.70231      .   S
    C155   O526      0.70237      .   S
    C128   O526      0.70237      .   S
    C155   O527      0.70250      .   S
    C95    O527      0.70250      .   S
    C149   O528      0.70229      .   S
    C131   O528      0.70229      .   S
    C149   O529      0.70240      .   S
    C92    O529      0.70240      .   S
    C175   O530      0.70240      .   S
    C117   O530      0.70240      .   S
    C175   O531      0.70233      .   S
    C105   O531      0.70233      .   S
    C46    O532      0.54156      .   S
    C118   O532      0.54156      .   S
    C56    O533      0.54137      .   S
    C128   O533      0.54137      .   S
    C45    O534      0.54144      .   S
    C117   O534      0.54144      .   S
    C59    O535      0.54136      .   S
    C131   O535      0.54136      .   S
    C20    O536      0.54143      .   S
    C92    O536      0.54143      .   S
    C33    O537      0.54139      .   S
    C105   O537      0.54139      .   S
    C23    O538      0.54146      .   S
    C95    O538      0.54146      .   S
    C34    O539      0.54140      .   S
    C106   O539      0.54140      .   S
    C118   O540      0.67451      .   S
    C238   O540      0.67451      .   S
    C128   O541      0.67445      .   S
    C248   O541      0.67445      .   S
    C117   O542      0.67448      .   S
    C237   O542      0.67448      .   S
    C131   O543      0.67445      .   S
    C251   O543      0.67445      .   S
    C92    O544      0.67448      .   S
    C212   O544      0.67448      .   S
    C105   O545      0.67440      .   S
    C225   O545      0.67440      .   S
    C95    O546      0.67438      .   S
    C215   O546      0.67438      .   S
    C106   O547      0.67439      .   S
    C226   O547      0.67439      .   S
    C238   O548      0.68059      .   S
    C226   O548      0.68059      .   S
    C238   O549      1.00039      .   S
    C5     O549      1.00039      .   S
    C248   O550      0.68049      .   S
    C215   O550      0.68049      .   S
    C248   O551      1.00004      .   S
    C11    O551      1.00004      .   S
    C251   O552      0.68048      .   S
    C212   O552      0.68048      .   S
    C237   O553      0.68047      .   S
    C225   O553      0.68047      .   S
    C225   O554      0.99975      .   S
    C11    O554      0.99975      .   S
    C215   O555      1.00020      .   S
    C5     O555      1.00020      .   S
