# CIF file generated by openbabel 2.4.90, see http://openbabel.sf.net
data_I
_chemical_name_common ''
_cell_length_a 14.42
_cell_length_b 16.433
_cell_length_c 18.991
_cell_angle_alpha 115.842
_cell_angle_beta 102.848
_cell_angle_gamma 89.993
_space_group_name_H-M_alt 'P 1'
_space_group_name_Hall 'P 1'
loop_
    _symmetry_equiv_pos_as_xyz
    x,y,z
loop_
    _atom_site_label
    _atom_site_type_symbol
    _atom_site_fract_x
    _atom_site_fract_y
    _atom_site_fract_z
    _atom_site_occupancy
    C0      C    0.74632   0.07355   0.63551   1.000
    C1      C    0.80038   0.14822   0.80849   1.000
    C2      C    0.24619   0.56121   0.63569   1.000
    C3      C    0.30035   0.66075   0.80850   1.000
    C4      C    0.75380   0.43875   0.36433   1.000
    C5      C    0.69964   0.33921   0.19152   1.000
    C6      C    0.25367   0.92641   0.36450   1.000
    C7      C    0.19961   0.85174   0.19153   1.000
    C8      C    0.05676   0.01751   0.82861   1.000
    C9      C    0.16489   0.89742   0.82806   1.000
    C10     C    0.04358   0.73821   0.57414   1.000
    C11     C    0.93566   0.85863   0.57482   1.000
    C12     C    0.50378   0.48598   0.86998   1.000
    C13     C    0.39241   0.33135   0.61430   1.000
    C14     C    0.50225   0.21314   0.61394   1.000
    C15     C    0.61309   0.36691   0.86980   1.000
    C16     C    0.85615   0.03229   0.88790   1.000
    C17     C    0.95188   0.04816   0.02132   1.000
    C18     C    0.94259   0.33850   0.11590   1.000
    C19     C    0.84819   0.31112   0.97806   1.000
    C20     C    0.17805   0.14362   0.25333   1.000
    C21     C    0.01532   0.41722   0.35488   1.000
    C22     C    0.08147   0.53278   0.49780   1.000
    C23     C    0.32034   0.39881   0.52263   1.000
    C24     C    0.26811   0.27933   0.37978   1.000
    C25     C    0.55674   0.81161   0.82815   1.000
    C26     C    0.66489   0.93095   0.82746   1.000
    C27     C    0.54348   0.83418   0.57354   1.000
    C28     C    0.43568   0.71444   0.57430   1.000
    C29     C    0.00495   0.38413   0.86990   1.000
    C30     C    0.89181   0.28255   0.61455   1.000
    C31     C    0.00124   0.40066   0.61418   1.000
    C32     C    0.11410   0.50316   0.86974   1.000
    C33     C    0.35785   0.85652   0.88888   1.000
    C34     C    0.45360   0.97409   0.02289   1.000
    C35     C    0.44141   0.77787   0.11578   1.000
    C36     C    0.34709   0.66741   0.97750   1.000
    C37     C    0.67919   0.11020   0.25526   1.000
    C38     C    0.51503   0.93795   0.35506   1.000
    C39     C    0.58122   0.96465   0.49752   1.000
    C40     C    0.82156   0.12226   0.52302   1.000
    C41     C    0.76932   0.09945   0.38061   1.000
    C42     C    0.44325   0.18836   0.17187   1.000
    C43     C    0.33509   0.06902   0.17255   1.000
    C44     C    0.45651   0.16577   0.42647   1.000
    C45     C    0.56431   0.28551   0.42570   1.000
    C46     C    0.99503   0.61582   0.13011   1.000
    C47     C    0.10817   0.71741   0.38547   1.000
    C48     C    0.99874   0.59930   0.38583   1.000
    C49     C    0.88589   0.49679   0.13027   1.000
    C50     C    0.64212   0.14344   0.11113   1.000
    C51     C    0.54637   0.02587   0.97712   1.000
    C52     C    0.55857   0.22209   0.88423   1.000
    C53     C    0.65289   0.33254   0.02250   1.000
    C54     C    0.32078   0.88975   0.74475   1.000
    C55     C    0.48495   0.06199   0.64495   1.000
    C56     C    0.41876   0.03530   0.50249   1.000
    C57     C    0.17842   0.87769   0.47699   1.000
    C58     C    0.23066   0.90050   0.61900   1.000
    C59     C    0.94322   0.98244   0.17140   1.000
    C60     C    0.83508   0.10253   0.17190   1.000
    C61     C    0.95639   0.26174   0.42586   1.000
    C62     C    0.06432   0.14133   0.42519   1.000
    C63     C    0.49621   0.51399   0.13003   1.000
    C64     C    0.60756   0.66859   0.38570   1.000
    C65     C    0.49772   0.78680   0.38600   1.000
    C66     C    0.38689   0.63305   0.13010   1.000
    C67     C    0.14382   0.96767   0.11211   1.000
    C68     C    0.04809   0.95179   0.97869   1.000
    C69     C    0.05740   0.66145   0.88411   1.000
    C70     C    0.15180   0.68883   0.02195   1.000
    C71     C    0.82193   0.85633   0.74668   1.000
    C72     C    0.98466   0.58273   0.64510   1.000
    C73     C    0.91851   0.46717   0.50220   1.000
    C74     C    0.67964   0.60114   0.47738   1.000
    C75     C    0.73186   0.72062   0.62024   1.000
    C76     C    0.16834   0.73510   0.70309   1.000
    C77     C    0.91593   0.01040   0.70530   1.000
    C78     C    0.98933   0.94461   0.70198   1.000
    C79     C    0.05558   0.95664   0.77305   1.000
    C80     C    0.11523   0.89008   0.77272   1.000
    C81     C    0.10985   0.81019   0.70130   1.000
    C82     C    0.04672   0.80011   0.62941   1.000
    C83     C    0.98690   0.86680   0.62973   1.000
    C84     C    0.38000   0.48915   0.74073   1.000
    C85     C    0.44200   0.41607   0.74206   1.000
    C86     C    0.50329   0.42538   0.81438   1.000
    C87     C    0.44079   0.33842   0.67002   1.000
    C88     C    0.63301   0.21365   0.73974   1.000
    C89     C    0.56368   0.28235   0.74195   1.000
    C90     C    0.50115   0.27249   0.66990   1.000
    C91     C    0.56353   0.35907   0.81430   1.000
    C92     C    0.87683   0.09876   0.93975   1.000
    C93     C    0.93063   0.10762   0.01343   1.000
    C94     C    0.95795   0.19509   0.07694   1.000
    C95     C    0.92566   0.27020   0.06646   1.000
    C96     C    0.87226   0.25473   0.99043   1.000
    C97     C    0.10160   0.26969   0.27120   1.000
    C98     C    0.12697   0.18049   0.23093   1.000
    C99     C    0.13661   0.33825   0.35485   1.000
    C100    C    0.08390   0.41104   0.38927   1.000
    C101    C    0.11962   0.47495   0.46881   1.000
    C102    C    0.25381   0.40003   0.48264   1.000
    C103    C    0.22344   0.33348   0.40331   1.000
    C104    C    0.66836   0.96728   0.70244   1.000
    C105    C    0.41588   0.69447   0.70505   1.000
    C106    C    0.48930   0.75674   0.70152   1.000
    C107    C    0.55556   0.81637   0.77254   1.000
    C108    C    0.61524   0.88250   0.77214   1.000
    C109    C    0.60982   0.89042   0.70070   1.000
    C110    C    0.54667   0.82801   0.62884   1.000
    C111    C    0.48689   0.76166   0.62922   1.000
    C112    C    0.88044   0.25138   0.74082   1.000
    C113    C    0.94235   0.32583   0.74214   1.000
    C114    C    0.00401   0.38905   0.81438   1.000
    C115    C    0.94052   0.33136   0.67020   1.000
    C116    C    0.13289   0.52618   0.73983   1.000
    C117    C    0.06364   0.45965   0.74200   1.000
    C118    C    0.00068   0.39729   0.67000   1.000
    C119    C    0.06415   0.45533   0.81428   1.000
    C120    C    0.37788   0.84179   0.94050   1.000
    C121    C    0.43170   0.90659   0.01445   1.000
    C122    C    0.45829   0.88247   0.07762   1.000
    C123    C    0.42516   0.79678   0.06658   1.000
    C124    C    0.37180   0.73625   0.99032   1.000
    C125    C    0.60206   0.00000   0.27206   1.000
    C126    C    0.62782   0.05089   0.23242   1.000
    C127    C    0.63702   0.01640   0.35544   1.000
    C128    C    0.58394   0.97808   0.38949   1.000
    C129    C    0.61967   0.99340   0.46878   1.000
    C130    C    0.75470   0.08149   0.48300   1.000
    C131    C    0.72434   0.06901   0.40393   1.000
    C132    C    0.33163   0.03269   0.29757   1.000
    C133    C    0.58412   0.30549   0.29490   1.000
    C134    C    0.51069   0.24322   0.29850   1.000
    C135    C    0.44443   0.18359   0.22748   1.000
    C136    C    0.38475   0.11746   0.22788   1.000
    C137    C    0.39017   0.10953   0.29931   1.000
    C138    C    0.45332   0.17194   0.37110   1.000
    C139    C    0.51311   0.23829   0.37080   1.000
    C140    C    0.11955   0.74858   0.25919   1.000
    C141    C    0.05763   0.67413   0.25787   1.000
    C142    C    0.99597   0.61091   0.18563   1.000
    C143    C    0.05946   0.66860   0.32981   1.000
    C144    C    0.86711   0.47377   0.26018   1.000
    C145    C    0.93633   0.54032   0.25799   1.000
    C146    C    0.99931   0.60267   0.32994   1.000
    C147    C    0.93584   0.54462   0.18573   1.000
    C148    C    0.62208   0.15817   0.05952   1.000
    C149    C    0.56827   0.09336   0.98556   1.000
    C150    C    0.54169   0.11749   0.92239   1.000
    C151    C    0.57482   0.20317   0.93343   1.000
    C152    C    0.62818   0.26371   0.00000   1.000
    C153    C    0.39792   0.99831   0.72795   1.000
    C154    C    0.37216   0.94906   0.76759   1.000
    C155    C    0.36296   0.98355   0.64457   1.000
    C156    C    0.41604   0.02187   0.61052   1.000
    C157    C    0.38031   0.00000   0.53123   1.000
    C158    C    0.24528   0.91846   0.51701   1.000
    C159    C    0.27564   0.93094   0.59608   1.000
    C160    C    0.83164   0.26486   0.29692   1.000
    C161    C    0.08405   0.98955   0.29467   1.000
    C162    C    0.00000   0.05535   0.29802   1.000
    C163    C    0.94439   0.04331   0.22696   1.000
    C164    C    0.88475   0.10986   0.22728   1.000
    C165    C    0.89012   0.18975   0.29870   1.000
    C166    C    0.95326   0.19984   0.37060   1.000
    C167    C    0.00000   0.13315   0.37028   1.000
    C168    C    0.61998   0.51081   0.25928   1.000
    C169    C    0.55797   0.58388   0.25795   1.000
    C170    C    0.49670   0.57458   0.18563   1.000
    C171    C    0.55919   0.66153   0.32999   1.000
    C172    C    0.36698   0.78631   0.26027   1.000
    C173    C    0.43630   0.71761   0.25806   1.000
    C174    C    0.49882   0.72745   0.33011   1.000
    C175    C    0.43645   0.64089   0.18571   1.000
    C176    C    0.12315   0.90119   0.06026   1.000
    C177    C    0.06935   0.89233   0.98650   1.000
    C178    C    0.04203   0.80486   0.92307   1.000
    C179    C    0.07433   0.72975   0.93356   1.000
    C180    C    0.12773   0.74522   0.00000   1.000
    C181    C    0.89838   0.73025   0.72881   1.000
    C182    C    0.87301   0.81945   0.76908   1.000
    C183    C    0.86337   0.66170   0.64516   1.000
    C184    C    0.91608   0.58891   0.61074   1.000
    C185    C    0.88036   0.52499   0.53121   1.000
    C186    C    0.74616   0.59992   0.51737   1.000
    C187    C    0.77654   0.66647   0.59670   1.000
    C188    C    0.84932   0.17104   0.92740   1.000
    C189    C    0.20299   0.46988   0.51535   1.000
    C190    C    0.02015   0.20695   0.15015   1.000
    C191    C    0.03384   0.28503   0.21830   1.000
    C192    C    0.07513   0.14143   0.15471   1.000
    C193    C    0.34963   0.75704   0.92760   1.000
    C194    C    0.70348   0.04448   0.51537   1.000
    C195    C    0.52058   0.94373   0.15105   1.000
    C196    C    0.53401   0.93357   0.21888   1.000
    C197    C    0.57597   0.01398   0.15622   1.000
    C198    C    0.65034   0.24292   0.07241   1.000
    C199    C    0.29650   0.95547   0.48464   1.000
    C200    C    0.47940   0.05622   0.84896   1.000
    C201    C    0.46597   0.06638   0.78113   1.000
    C202    C    0.42400   0.98598   0.84379   1.000
    C203    C    0.15066   0.82892   0.07261   1.000
    C204    C    0.79699   0.53007   0.48466   1.000
    C205    C    0.97983   0.79300   0.84987   1.000
    C206    C    0.96614   0.71492   0.78164   1.000
    C207    C    0.92485   0.85852   0.84530   1.000
    C208    C    0.16478   0.66627   0.63601   1.000
    C209    C    0.21676   0.74645   0.77229   1.000
    C210    C    0.91104   0.06831   0.77540   1.000
    C211    C    0.86223   0.00075   0.63854   1.000
    C212    C    0.37878   0.55540   0.80817   1.000
    C213    C    0.33361   0.47914   0.67130   1.000
    C214    C    0.68394   0.22105   0.80695   1.000
    C215    C    0.63654   0.15321   0.67013   1.000
    C216    C    0.66413   0.96897   0.63540   1.000
    C217    C    0.71747   0.02526   0.77155   1.000
    C218    C    0.41048   0.70795   0.77521   1.000
    C219    C    0.36271   0.63612   0.63834   1.000
    C220    C    0.87860   0.25347   0.80830   1.000
    C221    C    0.83477   0.19109   0.67143   1.000
    C222    C    0.18420   0.58609   0.80704   1.000
    C223    C    0.13596   0.51697   0.67027   1.000
    C224    C    0.33586   0.03099   0.36456   1.000
    C225    C    0.28252   0.97469   0.22846   1.000
    C226    C    0.58952   0.29202   0.22480   1.000
    C227    C    0.63729   0.36383   0.36168   1.000
    C228    C    0.12139   0.74649   0.19172   1.000
    C229    C    0.16521   0.80888   0.32850   1.000
    C230    C    0.81579   0.41386   0.19297   1.000
    C231    C    0.86402   0.48300   0.32975   1.000
    C232    C    0.83522   0.33369   0.36000   1.000
    C233    C    0.78321   0.25350   0.22771   1.000
    C234    C    0.08895   0.93165   0.22461   1.000
    C235    C    0.13776   0.99921   0.36140   1.000
    C236    C    0.62122   0.44456   0.19184   1.000
    C237    C    0.66635   0.52081   0.32863   1.000
    C238    C    0.31604   0.77890   0.19306   1.000
    C239    C    0.36345   0.84675   0.32987   1.000
    O240    O    0.64054   0.29812   0.01125   1.000
    O241    O    0.63926   0.25331   0.03621   1.000
    O242    O    0.60150   0.23344   0.96671   1.000
    O243    O    0.13976   0.71703   0.01098   1.000
    O244    O    0.13919   0.78707   0.03630   1.000
    O245    O    0.10103   0.73749   0.96678   1.000
    O246    O    0.94125   0.07789   0.01737   1.000
    O247    O    0.94429   0.15135   0.04518   1.000
    O248    O    0.90373   0.10319   0.97659   1.000
    O249    O    0.44265   0.94034   0.01867   1.000
    O250    O    0.44499   0.89453   0.04603   1.000
    O251    O    0.40479   0.87419   0.97747   1.000
    O252    O    0.63621   0.20054   0.06597   1.000
    O253    O    0.63210   0.15080   0.08532   1.000
    O254    O    0.59518   0.12576   0.02254   1.000
    O255    O    0.13690   0.86505   0.06643   1.000
    O256    O    0.13349   0.93443   0.08618   1.000
    O257    O    0.09625   0.89676   0.02338   1.000
    O258    O    0.94180   0.23265   0.07170   1.000
    O259    O    0.93412   0.30435   0.09118   1.000
    O260    O    0.89896   0.26247   0.02844   1.000
    O261    O    0.44172   0.83963   0.07210   1.000
    O262    O    0.43328   0.78732   0.09118   1.000
    O263    O    0.39848   0.76651   0.02845   1.000
    O264    O    0.67499   0.29106   0.13196   1.000
    O265    O    0.17514   0.84033   0.13207   1.000
    O266    O    0.98905   0.20102   0.11354   1.000
    O267    O    0.48943   0.91310   0.11434   1.000
    O268    O    0.49645   0.54428   0.15783   1.000
    O269    O    0.41167   0.63697   0.15790   1.000
    O270    O    0.99550   0.61336   0.15787   1.000
    O271    O    0.91087   0.52070   0.15800   1.000
    O272    O    0.04764   0.17419   0.15243   1.000
    O273    O    0.02699   0.24599   0.18423   1.000
    O274    O    0.54828   0.97886   0.15363   1.000
    O275    O    0.52729   0.93865   0.18496   1.000
    O276    O    0.10105   0.16096   0.19282   1.000
    O277    O    0.60190   0.03243   0.19432   1.000
    O278    O    0.94380   0.01287   0.19918   1.000
    O279    O    0.44384   0.18598   0.19967   1.000
    O280    O    0.85992   0.10620   0.19959   1.000
    O281    O    0.35992   0.09324   0.20022   1.000
    O282    O    0.96591   0.57777   0.18568   1.000
    O283    O    0.02680   0.64252   0.22175   1.000
    O284    O    0.46658   0.60773   0.18567   1.000
    O285    O    0.52733   0.57923   0.22179   1.000
    O286    O    0.43638   0.67925   0.22188   1.000
    O287    O    0.93609   0.54247   0.22186   1.000
    O288    O    0.66043   0.39189   0.19168   1.000
    O289    O    0.75772   0.37654   0.19224   1.000
    O290    O    0.64458   0.31561   0.20816   1.000
    O291    O    0.74143   0.29636   0.20961   1.000
    O292    O    0.16050   0.79911   0.19162   1.000
    O293    O    0.25783   0.81532   0.19229   1.000
    O294    O    0.14428   0.89169   0.20807   1.000
    O295    O    0.24107   0.91322   0.20999   1.000
    O296    O    0.12047   0.74753   0.22545   1.000
    O297    O    0.62060   0.47769   0.22556   1.000
    O298    O    0.84145   0.44381   0.22658   1.000
    O299    O    0.34151   0.78260   0.22667   1.000
    O300    O    0.06772   0.27736   0.24475   1.000
    O301    O    0.56803   0.96679   0.24547   1.000
    O302    O    0.08650   0.96060   0.25964   1.000
    O303    O    0.58682   0.29875   0.25985   1.000
    O304    O    0.91457   0.07659   0.22712   1.000
    O305    O    0.97220   0.04933   0.26249   1.000
    O306    O    0.88743   0.14981   0.26299   1.000
    O307    O    0.41459   0.15053   0.22768   1.000
    O308    O    0.47756   0.21341   0.26299   1.000
    O309    O    0.80743   0.25918   0.26232   1.000
    O310    O    0.38746   0.11350   0.26359   1.000
    O311    O    0.30708   0.00369   0.26301   1.000
    O312    O    0.15251   0.16206   0.24213   1.000
    O313    O    0.11428   0.22509   0.25106   1.000
    O314    O    0.65351   0.08055   0.24384   1.000
    O315    O    0.61494   0.02544   0.25224   1.000
    O316    O    0.08859   0.71135   0.25853   1.000
    O317    O    0.05855   0.67136   0.29384   1.000
    O318    O    0.58898   0.54734   0.25862   1.000
    O319    O    0.55858   0.62270   0.29397   1.000
    O320    O    0.90172   0.50704   0.25909   1.000
    O321    O    0.96782   0.57149   0.29397   1.000
    O322    O    0.40164   0.75196   0.25916   1.000
    O323    O    0.46756   0.72253   0.29409   1.000
    O324    O    0.14238   0.77873   0.29385   1.000
    O325    O    0.64317   0.51581   0.29396   1.000
    O326    O    0.86556   0.47838   0.29496   1.000
    O327    O    0.36522   0.81653   0.29507   1.000
    O328    O    0.11910   0.30397   0.31302   1.000
    O329    O    0.61954   0.00820   0.31375   1.000
    O330    O    0.04202   0.02245   0.29634   1.000
    O331    O    0.11090   0.99438   0.32804   1.000
    O332    O    0.54740   0.27436   0.29670   1.000
    O333    O    0.61070   0.33466   0.32829   1.000
    O334    O    0.86088   0.22731   0.29781   1.000
    O335    O    0.83343   0.29928   0.32846   1.000
    O336    O    0.36090   0.07111   0.29844   1.000
    O337    O    0.33374   0.03184   0.33106   1.000
    O338    O    0.00000   0.09425   0.33415   1.000
    O339    O    0.51190   0.24076   0.33465   1.000
    O340    O    0.92169   0.19480   0.33465   1.000
    O341    O    0.42174   0.14074   0.33520   1.000
    O342    O    0.20944   0.86764   0.34650   1.000
    O343    O    0.71008   0.47978   0.34648   1.000
    O344    O    0.80891   0.46087   0.34704   1.000
    O345    O    0.02938   0.63563   0.32988   1.000
    O346    O    0.08381   0.69300   0.35764   1.000
    O347    O    0.30856   0.88658   0.34719   1.000
    O348    O    0.99902   0.60099   0.35789   1.000
    O349    O    0.52900   0.69449   0.33005   1.000
    O350    O    0.58337   0.66506   0.35784   1.000
    O351    O    0.49827   0.75713   0.35806   1.000
    O352    O    0.11025   0.37464   0.37206   1.000
    O353    O    0.18002   0.33586   0.37908   1.000
    O354    O    0.04961   0.41413   0.37207   1.000
    O355    O    0.54949   0.95802   0.37227   1.000
    O356    O    0.61048   0.99724   0.37246   1.000
    O357    O    0.68068   0.04270   0.37968   1.000
    O358    O    0.79451   0.38622   0.36217   1.000
    O359    O    0.19571   0.96281   0.36295   1.000
    O360    O    0.69554   0.40129   0.36300   1.000
    O361    O    0.77539   0.48441   0.42450   1.000
    O362    O    0.29477   0.97870   0.36453   1.000
    O363    O    0.27509   0.94094   0.42457   1.000
    O364    O    0.97663   0.16649   0.37044   1.000
    O365    O    0.03216   0.13724   0.39774   1.000
    O366    O    0.95483   0.23079   0.39823   1.000
    O367    O    0.48321   0.20512   0.37095   1.000
    O368    O    0.53871   0.26190   0.39825   1.000
    O369    O    0.45492   0.16886   0.39879   1.000
    O370    O    0.24578   0.30640   0.39154   1.000
    O371    O    0.74683   0.08423   0.39227   1.000
    O372    O    0.10176   0.44300   0.42904   1.000
    O373    O    0.60181   0.98574   0.42913   1.000
    O374    O    0.23863   0.36675   0.44298   1.000
    O375    O    0.73952   0.07525   0.44346   1.000
    O376    O    0.60045   0.97902   0.48315   1.000
    O377    O    0.66158   0.01894   0.49207   1.000
    O378    O    0.10054   0.50387   0.48331   1.000
    O379    O    0.16131   0.47242   0.49208   1.000
    O380    O    0.21185   0.89808   0.49700   1.000
    O381    O    0.71290   0.60053   0.49738   1.000
    O382    O    0.22840   0.43495   0.49900   1.000
    O383    O    0.28708   0.39942   0.50263   1.000
    O384    O    0.72909   0.06299   0.49918   1.000
    O385    O    0.78813   0.10188   0.50301   1.000
    O386    O    0.27089   0.93696   0.50082   1.000
    O387    O    0.33841   0.97773   0.50794   1.000
    O388    O    0.77157   0.56500   0.50101   1.000
    O389    O    0.83867   0.52753   0.50793   1.000
    O390    O    0.89943   0.49608   0.51670   1.000
    O391    O    0.39953   0.01765   0.51686   1.000
    O392    O    0.22459   0.51554   0.57552   1.000
    O393    O    0.72490   0.05902   0.57544   1.000
    O394    O    0.26046   0.92470   0.55654   1.000
    O395    O    0.76135   0.63320   0.55703   1.000
    O396    O    0.89822   0.55695   0.57097   1.000
    O397    O    0.39817   0.01093   0.57088   1.000
    O398    O    0.54507   0.83109   0.60119   1.000
    O399    O    0.04515   0.76916   0.60177   1.000
    O400    O    0.46129   0.73805   0.60176   1.000
    O401    O    0.96128   0.86271   0.60227   1.000
    O402    O    0.25315   0.91572   0.60754   1.000
    O403    O    0.31930   0.95725   0.62032   1.000
    O404    O    0.75420   0.69355   0.60847   1.000
    O405    O    0.81995   0.66409   0.62093   1.000
    O406    O    0.38950   0.00271   0.62754   1.000
    O407    O    0.45050   0.04193   0.62774   1.000
    O408    O    0.95037   0.58582   0.62792   1.000
    O409    O    0.88973   0.62530   0.62795   1.000
    O410    O    0.50170   0.24282   0.64192   1.000
    O411    O    0.00096   0.39897   0.64209   1.000
    O412    O    0.41660   0.33489   0.64216   1.000
    O413    O    0.91616   0.30696   0.64238   1.000
    O414    O    0.51678   0.79483   0.62903   1.000
    O415    O    0.57825   0.85922   0.66477   1.000
    O416    O    0.48810   0.75920   0.66537   1.000
    O417    O    0.01681   0.83346   0.62957   1.000
    O418    O    0.07829   0.80515   0.66536   1.000
    O419    O    0.98812   0.90570   0.66585   1.000
    O420    O    0.70523   0.02126   0.63545   1.000
    O421    O    0.66625   0.96812   0.66892   1.000
    O422    O    0.80428   0.03715   0.63703   1.000
    O423    O    0.69143   0.11338   0.65282   1.000
    O424    O    0.79054   0.13232   0.65347   1.000
    O425    O    0.20549   0.61374   0.63585   1.000
    O426    O    0.30445   0.59866   0.63702   1.000
    O427    O    0.19108   0.53909   0.65298   1.000
    O428    O    0.28990   0.52018   0.65349   1.000
    O429    O    0.16656   0.70068   0.66955   1.000
    O430    O    0.38930   0.66529   0.67170   1.000
    O431    O    0.88908   0.00557   0.67192   1.000
    O432    O    0.38044   0.99093   0.68626   1.000
    O433    O    0.88088   0.69598   0.68698   1.000
    O434    O    0.47097   0.30546   0.66996   1.000
    O435    O    0.53241   0.27742   0.70593   1.000
    O436    O    0.97060   0.36432   0.67010   1.000
    O437    O    0.03216   0.42847   0.70600   1.000
    O438    O    0.44139   0.37725   0.70604   1.000
    O439    O    0.63477   0.18343   0.70494   1.000
    O440    O    0.94144   0.32860   0.70617   1.000
    O441    O    0.13442   0.52158   0.70505   1.000
    O442    O    0.35681   0.48415   0.70602   1.000
    O443    O    0.85760   0.22123   0.70613   1.000
    O444    O    0.63909   0.92885   0.70157   1.000
    O445    O    0.61253   0.88646   0.73642   1.000
    O446    O    0.13910   0.77264   0.70220   1.000
    O447    O    0.11254   0.85014   0.73701   1.000
    O448    O    0.45259   0.72560   0.70329   1.000
    O449    O    0.52243   0.78656   0.73703   1.000
    O450    O    0.95263   0.97750   0.70364   1.000
    O451    O    0.02246   0.95062   0.73752   1.000
    O452    O    0.69291   0.99627   0.73699   1.000
    O453    O    0.19255   0.74077   0.73769   1.000
    O454    O    0.41318   0.70121   0.74013   1.000
    O455    O    0.91348   0.03935   0.74035   1.000
    O456    O    0.38504   0.97369   0.74777   1.000
    O457    O    0.43194   0.03235   0.75454   1.000
    O458    O    0.88570   0.77485   0.74894   1.000
    O459    O    0.93226   0.72259   0.75523   1.000
    O460    O    0.59834   0.24800   0.74084   1.000
    O461    O    0.65847   0.21735   0.77334   1.000
    O462    O    0.09827   0.49292   0.74091   1.000
    O463    O    0.15854   0.55614   0.77343   1.000
    O464    O    0.41100   0.45261   0.74140   1.000
    O465    O    0.37939   0.52228   0.77445   1.000
    O466    O    0.91140   0.28861   0.74148   1.000
    O467    O    0.87952   0.25243   0.77456   1.000
    O468    O    0.56360   0.32071   0.77812   1.000
    O469    O    0.06390   0.45749   0.77814   1.000
    O470    O    0.47264   0.42073   0.77822   1.000
    O471    O    0.97318   0.35744   0.77826   1.000
    O472    O    0.34647   0.91940   0.75617   1.000
    O473    O    0.84747   0.83789   0.75788   1.000
    O474    O    0.39808   0.96752   0.80569   1.000
    O475    O    0.89893   0.83899   0.80719   1.000
    O476    O    0.75893   0.08674   0.79002   1.000
    O477    O    0.58540   0.84944   0.77234   1.000
    O478    O    0.64006   0.90672   0.79980   1.000
    O479    O    0.25855   0.70360   0.79040   1.000
    O480    O    0.55615   0.81399   0.80035   1.000
    O481    O    0.08540   0.92336   0.77289   1.000
    O482    O    0.14006   0.89375   0.80039   1.000
    O483    O    0.05617   0.98707   0.80083   1.000
    O484    O    0.35541   0.68435   0.79185   1.000
    O485    O    0.85571   0.10827   0.79194   1.000
    O486    O    0.47268   0.06130   0.81505   1.000
    O487    O    0.97299   0.75396   0.81576   1.000
    O488    O    0.74216   0.18464   0.80772   1.000
    O489    O    0.24227   0.62342   0.80777   1.000
    O490    O    0.33956   0.60808   0.80834   1.000
    O491    O    0.83949   0.20085   0.80840   1.000
    O492    O    0.82485   0.15963   0.86795   1.000
    O493    O    0.32499   0.70889   0.86805   1.000
    O494    O    0.03408   0.42219   0.81433   1.000
    O495    O    0.08912   0.47925   0.84201   1.000
    O496    O    0.53341   0.39222   0.81434   1.000
    O497    O    0.58831   0.36299   0.84205   1.000
    O498    O    0.50353   0.45568   0.84218   1.000
    O499    O    0.00448   0.38659   0.84214   1.000
    O500    O    0.45170   0.02110   0.84637   1.000
    O501    O    0.95234   0.82576   0.84759   1.000
    O502    O    0.51054   0.08685   0.88567   1.000
    O503    O    0.01093   0.79893   0.88647   1.000
    O504    O    0.06587   0.69560   0.90883   1.000
    O505    O    0.56670   0.21263   0.90883   1.000
    O506    O    0.86649   0.06552   0.91382   1.000
    O507    O    0.36786   0.84916   0.91469   1.000
    O508    O    0.55825   0.16033   0.92791   1.000
    O509    O    0.55498   0.10543   0.95398   1.000
    O510    O    0.05818   0.76731   0.92831   1.000
    O511    O    0.05569   0.84860   0.95478   1.000
    O512    O    0.86307   0.13490   0.93358   1.000
    O513    O    0.86079   0.21288   0.95892   1.000
    O514    O    0.36376   0.79941   0.93405   1.000
    O515    O    0.36072   0.74664   0.95896   1.000
    O516    O    0.55732   0.05962   0.98134   1.000
    O517    O    0.35944   0.70183   0.98391   1.000
    O518    O    0.86023   0.28293   0.98424   1.000
    O519    O    0.05872   0.92206   0.98259   1.000
    O520    O    0.77335   0.11088   0.72200   1.000
    O521    O    0.27327   0.61098   0.72210   1.000
    O522    O    0.72672   0.38898   0.27792   1.000
    O523    O    0.22664   0.88908   0.27802   1.000
loop_
    _geom_bond_atom_site_label_1
    _geom_bond_atom_site_label_2
    _geom_bond_distance
    _geom_bond_site_symmetry_2
    _ccdc_geom_bond_type
    C152   O240      0.52445      .   S
    C53    O240      0.52445      .   S
    C152   O241      0.76222      .   S
    C198   O241      0.76222      .   S
    C152   O242      0.64248  1_554   S
    C151   O242      0.64248      .   S
    C180   O243      0.59694      .   S
    C70    O243      0.59694      .   S
    C180   O244      0.71526      .   S
    C203   O244      0.71526      .   S
    C180   O245      0.62005  1_554   S
    C179   O245      0.62005      .   S
    C93    O246      0.54272      .   S
    C17    O246      0.54272      .   S
    C93    O247      0.69884      .   S
    C94    O247      0.69884      .   S
    C93    O248      0.69294  1_554   S
    C92    O248      0.69294      .   S
    C121   O249      0.54271      .   S
    C34    O249      0.54271      .   S
    C121   O250      0.69882      .   S
    C122   O250      0.69882      .   S
    C121   O251      0.69287  1_554   S
    C120   O251      0.69287      .   S
    C148   O252      0.67532      .   S
    C198   O252      0.67532      .   S
    C148   O253      0.54395      .   S
    C50    O253      0.54395      .   S
    C148   O254      0.69292      .   S
    C149   O254      0.69292  1_556   S
    C176   O255      0.67533      .   S
    C203   O255      0.67533      .   S
    C176   O256      0.54397      .   S
    C67    O256      0.54397      .   S
    C176   O257      0.69357      .   S
    C177   O257      0.69357  1_556   S
    C95    O258      0.69874      .   S
    C94    O258      0.69874      .   S
    C95    O259      0.54319      .   S
    C18    O259      0.54319      .   S
    C95    O260      0.69423      .   S
    C96    O260      0.69423  1_556   S
    C123   O261      0.69874      .   S
    C122   O261      0.69874      .   S
    C123   O262      0.54323      .   S
    C35    O262      0.54323      .   S
    C123   O263      0.69422      .   S
    C124   O263      0.69422  1_556   S
    C198   O264      1.03571      .   S
    C5     O264      1.03571      .   S
    C203   O265      1.03586      .   S
    C7     O265      1.03586      .   S
    C94    O266      0.70439      .   S
    C190   O266      0.70439  1_455   S
    C122   O267      0.70433      .   S
    C195   O267      0.70433      .   S
    C63    O268      0.54463      .   S
    C170   O268      0.54463      .   S
    C66    O269      0.54505      .   S
    C175   O269      0.54505      .   S
    C46    O270      0.54459      .   S
    C142   O270      0.54459      .   S
    C49    O271      0.54476      .   S
    C147   O271      0.54476      .   S
    C190   O272      0.67933      .   S
    C192   O272      0.67933      .   S
    C190   O273      0.67064      .   S
    C191   O273      0.67064      .   S
    C195   O274      0.67945      .   S
    C197   O274      0.67945  1_545   S
    C195   O275      0.67108      .   S
    C196   O275      0.67108      .   S
    C192   O276      0.66613      .   S
    C98    O276      0.66613      .   S
    C197   O277      0.66610      .   S
    C126   O277      0.66610      .   S
    C59    O278      0.54453  1_565   S
    C163   O278      0.54453      .   S
    C42    O279      0.54449      .   S
    C135   O279      0.54449      .   S
    C60    O280      0.54499      .   S
    C164   O280      0.54499      .   S
    C43    O281      0.54469      .   S
    C136   O281      0.54469      .   S
    C142   O282      0.69660      .   S
    C147   O282      0.69660      .   S
    C142   O283      0.70128  1_655   S
    C141   O283      0.70128      .   S
    C170   O284      0.69664      .   S
    C175   O284      0.69664      .   S
    C170   O285      0.70135      .   S
    C169   O285      0.70135      .   S
    C175   O286      0.70150      .   S
    C173   O286      0.70150      .   S
    C147   O287      0.70153      .   S
    C145   O287      0.70153      .   S
    C5     O288      1.03313      .   S
    C236   O288      1.03313      .   S
    C5     O289      1.03215      .   S
    C230   O289      1.03215      .   S
    C5     O290      1.04840      .   S
    C226   O290      1.04840      .   S
    C5     O291      1.04684      .   S
    C233   O291      1.04684      .   S
    C7     O292      1.03339      .   S
    C228   O292      1.03339      .   S
    C7     O293      1.03207      .   S
    C238   O293      1.03207      .   S
    C7     O294      1.04778      .   S
    C234   O294      1.04778      .   S
    C7     O295      1.04833      .   S
    C225   O295      1.04833      .   S
    C228   O296      0.63648      .   S
    C140   O296      0.63648      .   S
    C236   O297      0.63648      .   S
    C168   O297      0.63648      .   S
    C230   O298      0.63846      .   S
    C144   O298      0.63846      .   S
    C238   O299      0.63855      .   S
    C172   O299      0.63855      .   S
    C191   O300      0.67297      .   S
    C97    O300      0.67297      .   S
    C196   O301      0.66577      .   S
    C125   O301      0.66577  1_545   S
    C234   O302      0.63616      .   S
    C161   O302      0.63616      .   S
    C226   O303      0.63571      .   S
    C133   O303      0.63571      .   S
    C163   O304      0.69502      .   S
    C164   O304      0.69502      .   S
    C163   O305      0.66883      .   S
    C162   O305      0.66883  1_455   S
    C164   O306      0.70182      .   S
    C165   O306      0.70182      .   S
    C135   O307      0.69501      .   S
    C136   O307      0.69501      .   S
    C135   O308      0.70126      .   S
    C134   O308      0.70126      .   S
    C233   O309      0.63799      .   S
    C160   O309      0.63799      .   S
    C136   O310      0.70180      .   S
    C137   O310      0.70180      .   S
    C225   O311      0.63808  1_565   S
    C132   O311      0.63808      .   S
    C98    O312      0.54218      .   S
    C20    O312      0.54218      .   S
    C98    O313      0.70966      .   S
    C97    O313      0.70966      .   S
    C126   O314      0.54216      .   S
    C37    O314      0.54216      .   S
    C126   O315      0.72063      .   S
    C125   O315      0.72063      .   S
    C141   O316      0.75138      .   S
    C140   O316      0.75138      .   S
    C141   O317      0.70136      .   S
    C143   O317      0.70136      .   S
    C169   O318      0.75139      .   S
    C168   O318      0.75139      .   S
    C169   O319      0.70135      .   S
    C171   O319      0.70135      .   S
    C145   O320      0.75042      .   S
    C144   O320      0.75042      .   S
    C145   O321      0.70169      .   S
    C146   O321      0.70169      .   S
    C173   O322      0.75046      .   S
    C172   O322      0.75046      .   S
    C173   O323      0.70171      .   S
    C174   O323      0.70171      .   S
    C140   O324      0.63751      .   S
    C229   O324      0.63751      .   S
    C168   O325      0.63805      .   S
    C237   O325      0.63805      .   S
    C144   O326      0.63680      .   S
    C231   O326      0.63680      .   S
    C172   O327      0.63670      .   S
    C239   O327      0.63670      .   S
    C97    O328      0.72988      .   S
    C99    O328      0.72988      .   S
    C125   O329      0.72580      .   S
    C127   O329      0.72580      .   S
    C161   O330      0.80869  1_565   S
    C162   O330      0.80869      .   S
    C161   O331      0.63623      .   S
    C235   O331      0.63623      .   S
    C133   O332      0.75272      .   S
    C134   O332      0.75272      .   S
    C133   O333      0.63702      .   S
    C227   O333      0.63702      .   S
    C160   O334      0.75146      .   S
    C165   O334      0.75146      .   S
    C160   O335      0.61411      .   S
    C232   O335      0.61411      .   S
    C132   O336      0.75166      .   S
    C137   O336      0.75166      .   S
    C132   O337      0.63629      .   S
    C224   O337      0.63629      .   S
    C162   O338      0.70503      .   S
    C167   O338      0.70503      .   S
    C134   O339      0.70154      .   S
    C139   O339      0.70154      .   S
    C165   O340      0.70191      .   S
    C166   O340      0.70191      .   S
    C137   O341      0.70159      .   S
    C138   O341      0.70159      .   S
    C229   O342      1.03520      .   S
    C6     O342      1.03520      .   S
    C237   O343      1.03494      .   S
    C4     O343      1.03494      .   S
    C231   O344      1.04485      .   S
    C4     O344      1.04485      .   S
    C143   O345      0.69456      .   S
    C146   O345      0.69456  1_655   S
    C143   O346      0.54424      .   S
    C47    O346      0.54424      .   S
    C239   O347      1.04453      .   S
    C6     O347      1.04453      .   S
    C146   O348      0.54424      .   S
    C48    O348      0.54424      .   S
    C171   O349      0.69461      .   S
    C174   O349      0.69461      .   S
    C171   O350      0.54409      .   S
    C64    O350      0.54409      .   S
    C174   O351      0.54385      .   S
    C65    O351      0.54385      .   S
    C99    O352      0.70264      .   S
    C100   O352      0.70264      .   S
    C99    O353      0.70204      .   S
    C103   O353      0.70204      .   S
    C21    O354      0.54437      .   S
    C100   O354      0.54437      .   S
    C38    O355      0.54434      .   S
    C128   O355      0.54434      .   S
    C127   O356      0.70277  1_545   S
    C128   O356      0.70277      .   S
    C127   O357      0.70205      .   S
    C131   O357      0.70205      .   S
    C232   O358      1.03492      .   S
    C4     O358      1.03492      .   S
    C235   O359      1.03025      .   S
    C6     O359      1.03025      .   S
    C227   O360      1.03072      .   S
    C4     O360      1.03072      .   S
    C4     O361      1.02952      .   S
    C204   O361      1.02952      .   S
    C6     O362      1.04355      .   S
    C224   O362      1.04355  1_545   S
    C6     O363      1.02940      .   S
    C199   O363      1.02940      .   S
    C167   O364      0.64249  1_455   S
    C166   O364      0.64249      .   S
    C167   O365      0.59443      .   S
    C62    O365      0.59443      .   S
    C166   O366      0.54462      .   S
    C61    O366      0.54462      .   S
    C139   O367      0.69643      .   S
    C138   O367      0.69643      .   S
    C139   O368      0.54469      .   S
    C45    O368      0.54469      .   S
    C138   O369      0.54533      .   S
    C44    O369      0.54533      .   S
    C24    O370      0.54489      .   S
    C103   O370      0.54489      .   S
    C41    O371      0.54496      .   S
    C131   O371      0.54496      .   S
    C100   O372      0.69304      .   S
    C101   O372      0.69304      .   S
    C128   O373      0.69298      .   S
    C129   O373      0.69298      .   S
    C103   O374      0.69423      .   S
    C102   O374      0.69423      .   S
    C131   O375      0.69421      .   S
    C130   O375      0.69421      .   S
    C129   O376      0.54495      .   S
    C39    O376      0.54495      .   S
    C129   O377      0.67550  1_565   S
    C194   O377      0.67550      .   S
    C101   O378      0.54481      .   S
    C22    O378      0.54481      .   S
    C101   O379      0.67551      .   S
    C189   O379      0.67551      .   S
    C57    O380      0.54465      .   S
    C158   O380      0.54465      .   S
    C74    O381      0.54467      .   S
    C186   O381      0.54467      .   S
    C102   O382      0.67475      .   S
    C189   O382      0.67475      .   S
    C102   O383      0.54467      .   S
    C23    O383      0.54467      .   S
    C130   O384      0.67474      .   S
    C194   O384      0.67474      .   S
    C130   O385      0.54465      .   S
    C40    O385      0.54465      .   S
    C199   O386      0.67476      .   S
    C158   O386      0.67476      .   S
    C199   O387      0.65936      .   S
    C157   O387      0.65936  1_545   S
    C204   O388      0.67474      .   S
    C186   O388      0.67474      .   S
    C204   O389      0.67555      .   S
    C185   O389      0.67555      .   S
    C73    O390      0.54484      .   S
    C185   O390      0.54484      .   S
    C56    O391      0.58149      .   S
    C157   O391      0.58149      .   S
    C189   O392      1.02962      .   S
    C2     O392      1.02962      .   S
    C194   O393      1.02939      .   S
    C0     O393      1.02939      .   S
    C158   O394      0.69421      .   S
    C159   O394      0.69421      .   S
    C186   O395      0.69424      .   S
    C187   O395      0.69424      .   S
    C185   O396      0.69298      .   S
    C184   O396      0.69298      .   S
    C157   O397      0.67921      .   S
    C156   O397      0.67921      .   S
    C27    O398      0.54464      .   S
    C110   O398      0.54464      .   S
    C10    O399      0.54467      .   S
    C82    O399      0.54467      .   S
    C28    O400      0.54479      .   S
    C111   O400      0.54479      .   S
    C11    O401      0.54469      .   S
    C83    O401      0.54469      .   S
    C159   O402      0.54216      .   S
    C58    O402      0.54216      .   S
    C159   O403      0.70205      .   S
    C155   O403      0.70205      .   S
    C187   O404      0.54490      .   S
    C75    O404      0.54490      .   S
    C187   O405      0.70204      .   S
    C183   O405      0.70204      .   S
    C156   O406      0.70278      .   S
    C155   O406      0.70278  1_565   S
    C156   O407      0.54435      .   S
    C55    O407      0.54435      .   S
    C184   O408      0.54424      .   S
    C72    O408      0.54424      .   S
    C184   O409      0.70265      .   S
    C183   O409      0.70265      .   S
    C14    O410      0.54424      .   S
    C90    O410      0.54424      .   S
    C31    O411      0.54358      .   S
    C118   O411      0.54358      .   S
    C13    O412      0.54417      .   S
    C87    O412      0.54417      .   S
    C30    O413      0.54420      .   S
    C115   O413      0.54420      .   S
    C110   O414      0.69678      .   S
    C111   O414      0.69678      .   S
    C110   O415      0.70194      .   S
    C109   O415      0.70194      .   S
    C111   O416      0.70151      .   S
    C106   O416      0.70151      .   S
    C82    O417      0.69664      .   S
    C83    O417      0.69664  1_655   S
    C82    O418      0.70184      .   S
    C81    O418      0.70184      .   S
    C83    O419      0.70141      .   S
    C78    O419      0.70141      .   S
    C216   O420      1.04333  1_565   S
    C0     O420      1.04333      .   S
    C216   O421      0.63676      .   S
    C104   O421      0.63676      .   S
    C0     O422      1.03016      .   S
    C211   O422      1.03016      .   S
    C0     O423      1.04454      .   S
    C215   O423      1.04454      .   S
    C0     O424      1.03533      .   S
    C221   O424      1.03533      .   S
    C2     O425      1.04309      .   S
    C208   O425      1.04309      .   S
    C2     O426      1.03074      .   S
    C219   O426      1.03074      .   S
    C2     O427      1.04490      .   S
    C223   O427      1.04490      .   S
    C2     O428      1.03451      .   S
    C213   O428      1.03451      .   S
    C208   O429      0.63633      .   S
    C76    O429      0.63633      .   S
    C219   O430      0.63667      .   S
    C105   O430      0.63667      .   S
    C211   O431      0.63645      .   S
    C77    O431      0.63645      .   S
    C155   O432      0.72981      .   S
    C153   O432      0.72981      .   S
    C183   O433      0.72989      .   S
    C181   O433      0.72989      .   S
    C90    O434      0.69460      .   S
    C87    O434      0.69460      .   S
    C90    O435      0.70173      .   S
    C89    O435      0.70173      .   S
    C118   O436      0.69489  1_455   S
    C115   O436      0.69489      .   S
    C118   O437      0.70193      .   S
    C117   O437      0.70193      .   S
    C87    O438      0.70136      .   S
    C85    O438      0.70136      .   S
    C215   O439      0.63675      .   S
    C88    O439      0.63675      .   S
    C115   O440      0.70137      .   S
    C113   O440      0.70137      .   S
    C223   O441      0.63672      .   S
    C116   O441      0.63672      .   S
    C213   O442      0.63871      .   S
    C84    O442      0.63871      .   S
    C221   O443      0.63795      .   S
    C112   O443      0.63795      .   S
    C109   O444      0.75168      .   S
    C104   O444      0.75168      .   S
    C109   O445      0.70185      .   S
    C108   O445      0.70185      .   S
    C81    O446      0.75149      .   S
    C76    O446      0.75149      .   S
    C81    O447      0.70181      .   S
    C80    O447      0.70181      .   S
    C106   O448      0.75238      .   S
    C105   O448      0.75238      .   S
    C106   O449      0.70126      .   S
    C107   O449      0.70126      .   S
    C78    O450      0.75219      .   S
    C77    O450      0.75219  1_545   S
    C78    O451      0.70131  1_655   S
    C79    O451      0.70131      .   S
    C104   O452      0.63809      .   S
    C217   O452      0.63809  1_545   S
    C76    O453      0.63789      .   S
    C209   O453      0.63789      .   S
    C105   O454      0.63626      .   S
    C218   O454      0.63626      .   S
    C77    O455      0.63644      .   S
    C210   O455      0.63644      .   S
    C153   O456      0.70981      .   S
    C154   O456      0.70981      .   S
    C153   O457      0.67245  1_565   S
    C201   O457      0.67245      .   S
    C181   O458      0.70966      .   S
    C182   O458      0.70966      .   S
    C181   O459      0.67252      .   S
    C206   O459      0.67252      .   S
    C88    O460      0.75047      .   S
    C89    O460      0.75047      .   S
    C88    O461      0.63856      .   S
    C214   O461      0.63856      .   S
    C116   O462      0.75033      .   S
    C117   O462      0.75033      .   S
    C116   O463      0.63846      .   S
    C222   O463      0.63846      .   S
    C84    O464      0.75139      .   S
    C85    O464      0.75139      .   S
    C84    O465      0.63648      .   S
    C212   O465      0.63648      .   S
    C112   O466      0.75135      .   S
    C113   O466      0.75135      .   S
    C112   O467      0.63656      .   S
    C220   O467      0.63656      .   S
    C89    O468      0.70151      .   S
    C91    O468      0.70151      .   S
    C117   O469      0.70175      .   S
    C119   O469      0.70175      .   S
    C85    O470      0.70137      .   S
    C86    O470      0.70137      .   S
    C113   O471      0.70128      .   S
    C114   O471      0.70128  1_455   S
    C54    O472      0.54216      .   S
    C154   O472      0.54216      .   S
    C71    O473      0.54218      .   S
    C182   O473      0.54218      .   S
    C154   O474      0.66609      .   S
    C202   O474      0.66609      .   S
    C182   O475      0.66614      .   S
    C207   O475      0.66614      .   S
    C217   O476      1.04836      .   S
    C1     O476      1.04836      .   S
    C108   O477      0.69500      .   S
    C107   O477      0.69500      .   S
    C108   O478      0.54465      .   S
    C26    O478      0.54465      .   S
    C209   O479      1.04692      .   S
    C3     O479      1.04692      .   S
    C107   O480      0.54448      .   S
    C25    O480      0.54448      .   S
    C80    O481      0.69501      .   S
    C79    O481      0.69501      .   S
    C80    O482      0.54469      .   S
    C9     O482      0.54469      .   S
    C79    O483      0.54453      .   S
    C8     O483      0.54453  1_545   S
    C218   O484      1.04852      .   S
    C3     O484      1.04852      .   S
    C210   O485      1.04778      .   S
    C1     O485      1.04778      .   S
    C201   O486      0.67108      .   S
    C200   O486      0.67108      .   S
    C206   O487      0.67104      .   S
    C205   O487      0.67104      .   S
    C214   O488      1.03209      .   S
    C1     O488      1.03209      .   S
    C222   O489      1.03215      .   S
    C3     O489      1.03215      .   S
    C212   O490      1.03310      .   S
    C3     O490      1.03310      .   S
    C220   O491      1.03338      .   S
    C1     O491      1.03338      .   S
    C1     O492      1.03578      .   S
    C188   O492      1.03578      .   S
    C3     O493      1.03562      .   S
    C193   O493      1.03562      .   S
    C119   O494      0.69660      .   S
    C114   O494      0.69660      .   S
    C119   O495      0.54475      .   S
    C32    O495      0.54475      .   S
    C91    O496      0.69664      .   S
    C86    O496      0.69664      .   S
    C91    O497      0.54424      .   S
    C15    O497      0.54424      .   S
    C86    O498      0.54464      .   S
    C12    O498      0.54464      .   S
    C114   O499      0.54461      .   S
    C29    O499      0.54461      .   S
    C202   O500      0.67946  1_565   S
    C200   O500      0.67946      .   S
    C207   O501      0.67936      .   S
    C205   O501      0.67936      .   S
    C200   O502      0.70433      .   S
    C150   O502      0.70433      .   S
    C205   O503      0.70431  1_655   S
    C178   O503      0.70431      .   S
    C69    O504      0.54322      .   S
    C179   O504      0.54322      .   S
    C52    O505      0.54322      .   S
    C151   O505      0.54322      .   S
    C16    O506      0.54397      .   S
    C92    O506      0.54397      .   S
    C33    O507      0.54404      .   S
    C120   O507      0.54404      .   S
    C150   O508      0.69874      .   S
    C151   O508      0.69874      .   S
    C150   O509      0.69880      .   S
    C149   O509      0.69880      .   S
    C178   O510      0.69877      .   S
    C179   O510      0.69877      .   S
    C178   O511      0.69858      .   S
    C177   O511      0.69858      .   S
    C188   O512      0.67532      .   S
    C92    O512      0.67532      .   S
    C188   O513      0.67502      .   S
    C96    O513      0.67502      .   S
    C193   O514      0.67530      .   S
    C120   O514      0.67530      .   S
    C193   O515      0.67510      .   S
    C124   O515      0.67510      .   S
    C51    O516      0.54271      .   S
    C149   O516      0.54271      .   S
    C36    O517      0.54483      .   S
    C124   O517      0.54483      .   S
    C19    O518      0.54495      .   S
    C96    O518      0.54495      .   S
    C68    O519      0.54237      .   S
    C177   O519      0.54237      .   S
    C0     O520      1.43633      .   S
    C1     O520      1.43633      .   S
    C2     O521      1.43497      .   S
    C3     O521      1.43497      .   S
    C4     O522      1.43497      .   S
    C5     O522      1.43497      .   S
    C6     O523      1.43625      .   S
    C7     O523      1.43625      .   S
