# CIF file generated by openbabel 2.4.90, see http://openbabel.sf.net
data_I
_chemical_name_common ''
_cell_length_a 14.42
_cell_length_b 16.433
_cell_length_c 18.991
_cell_angle_alpha 115.842
_cell_angle_beta 102.848
_cell_angle_gamma 89.993
_space_group_name_H-M_alt 'P 1'
_space_group_name_Hall 'P 1'
loop_
    _symmetry_equiv_pos_as_xyz
    x,y,z
loop_
    _atom_site_label
    _atom_site_type_symbol
    _atom_site_fract_x
    _atom_site_fract_y
    _atom_site_fract_z
    _atom_site_occupancy
    N0      N    0.49738   0.65084   0.25793   1.000
    N1      N    0.45135   0.05516   0.78115   1.000
    N2      N    0.54863   0.94447   0.21847   1.000
    N3      N    0.00275   0.39290   0.74214   1.000
    N4      N    0.05045   0.87802   0.70138   1.000
    N5      N    0.04818   0.27348   0.21791   1.000
    N6      N    0.55043   0.82269   0.70084   1.000
    N7      N    0.50260   0.34912   0.74206   1.000
    N8      N    0.44956   0.17727   0.29917   1.000
    N9      N    0.95179   0.72647   0.78173   1.000
    N10     N    0.94715   0.12193   0.29862   1.000
    N11     N    0.99724   0.60706   0.25787   1.000
    Zr12    Zr   0.72635   0.38844   0.27746   1.000
    O13     O    0.79497   0.49694   0.44029   1.000
    O14     O    0.64476   0.28078   0.11701   1.000
    O15     O    0.61242   0.30713   0.28770   1.000
    O16     O    0.63476   0.49377   0.26787   1.000
    O17     O    0.81518   0.28153   0.28784   1.000
    O18     O    0.83792   0.47274   0.26797   1.000
    Zr19    Zr   0.27364   0.61152   0.72225   1.000
    O20     O    0.35522   0.71910   0.88276   1.000
    O21     O    0.20501   0.50301   0.55948   1.000
    O22     O    0.16207   0.52721   0.73189   1.000
    O23     O    0.38757   0.69283   0.71216   1.000
    O24     O    0.36522   0.50619   0.73199   1.000
    O25     O    0.18421   0.71842   0.71202   1.000
    Zr26    Zr   0.22619   0.88949   0.27785   1.000
    O27     O    0.14483   0.83644   0.11738   1.000
    O28     O    0.11039   0.98084   0.28767   1.000
    O29     O    0.33785   0.79544   0.26820   1.000
    O30     O    0.13455   0.77435   0.26802   1.000
    O31     O    0.29470   0.94377   0.44036   1.000
    O32     O    0.31571   0.00684   0.28833   1.000
    Zr33    Zr   0.77380   0.11047   0.72214   1.000
    O34     O    0.68428   0.99312   0.71167   1.000
    O35     O    0.86543   0.22561   0.73198   1.000
    O36     O    0.85516   0.16351   0.88253   1.000
    O37     O    0.88767   0.01912   0.71233   1.000
    O38     O    0.66213   0.20451   0.73180   1.000
    O39     O    0.70528   0.05611   0.55955   1.000
loop_
    _geom_bond_atom_site_label_1
    _geom_bond_atom_site_label_2
    _geom_bond_distance
    _geom_bond_site_symmetry_2
    _ccdc_geom_bond_type
    Zr12   O13       2.74828      .   S
    N9     O13       5.79189      .   S
    Zr12   O14       2.73968      .   S
    N1     O14       5.80367  1_556   S
    Zr12   O15       2.21166      .   S
    N8     O15       3.27866      .   S
    Zr12   O16       2.22273      .   S
    N0     O16       3.29846      .   S
    Zr12   O17       2.22605      .   S
    N10    O17       3.29171      .   S
    Zr12   O18       2.21070      .   S
    N11    O18       3.27919      .   S
    Zr19   O20       2.74017      .   S
    N2     O20       5.80105  1_554   S
    Zr19   O21       2.74750      .   S
    N5     O21       5.79384      .   S
    Zr19   O22       2.21212      .   S
    N3     O22       3.28061      .   S
    Zr19   O23       2.21031      .   S
    N6     O23       3.27719      .   S
    Zr19   O24       2.22349      .   S
    N7     O24       3.29911      .   S
    Zr19   O25       2.22998      .   S
    N4     O25       3.30551      .   S
    Zr26   O27       2.74195      .   S
    N9     O27       5.80627  1_656   S
    Zr26   O28       2.22947      .   S
    N10    O28       3.27958  1_645   S
    Zr26   O29       2.21319      .   S
    N0     O29       3.28193      .   S
    Zr26   O30       2.22357      .   S
    N11    O30       3.29915  1_655   S
    Zr26   O31       2.74596      .   S
    N1     O31       5.78893  1_545   S
    Zr26   O32       2.23085  1_565   S
    N8     O32       3.30662      .   S
    Zr33   O34       2.23091  1_545   S
    N6     O34       3.30667      .   S
    Zr33   O35       2.22350      .   S
    N3     O35       3.29909  1_455   S
    Zr33   O36       2.74055      .   S
    N5     O36       5.80182  1_454   S
    Zr33   O37       2.20823      .   S
    N4     O37       3.27485  1_465   S
    Zr33   O38       2.21320      .   S
    N7     O38       3.28197      .   S
    Zr33   O39       2.74727      .   S
    N2     O39       5.79307  1_565   S
