# CIF file generated by openbabel 2.4.90, see http://openbabel.sf.net
data_I
_chemical_name_common ''
_cell_length_a 14.42
_cell_length_b 16.433
_cell_length_c 18.991
_cell_angle_alpha 115.842
_cell_angle_beta 102.848
_cell_angle_gamma 89.993
_space_group_name_H-M_alt 'P 1'
_space_group_name_Hall 'P 1'
loop_
    _symmetry_equiv_pos_as_xyz
    x,y,z
loop_
    _atom_site_label
    _atom_site_type_symbol
    _atom_site_fract_x
    _atom_site_fract_y
    _atom_site_fract_z
    _atom_site_occupancy
    Zr0     Zr   0.74632   0.07355   0.63551   1.000
    Zr1     Zr   0.80038   0.14822   0.80849   1.000
    Zr2     Zr   0.24619   0.56121   0.63569   1.000
    Zr3     Zr   0.30035   0.66075   0.80850   1.000
    Zr4     Zr   0.75380   0.43875   0.36433   1.000
    Zr5     Zr   0.69964   0.33921   0.19152   1.000
    Zr6     Zr   0.25367   0.92641   0.36450   1.000
    Zr7     Zr   0.19961   0.85174   0.19153   1.000
    Zr8     Zr   0.16834   0.73510   0.70309   1.000
    Zr9     Zr   0.91593   0.01040   0.70530   1.000
    Zr10    Zr   0.38000   0.48915   0.74073   1.000
    Zr11    Zr   0.63301   0.21365   0.73974   1.000
    Zr12    Zr   0.66836   0.96728   0.70244   1.000
    Zr13    Zr   0.41588   0.69447   0.70505   1.000
    Zr14    Zr   0.88044   0.25138   0.74082   1.000
    Zr15    Zr   0.13289   0.52618   0.73983   1.000
    Zr16    Zr   0.33163   0.03269   0.29757   1.000
    Zr17    Zr   0.58412   0.30549   0.29490   1.000
    Zr18    Zr   0.11955   0.74858   0.25919   1.000
    Zr19    Zr   0.86711   0.47377   0.26018   1.000
    Zr20    Zr   0.83164   0.26486   0.29692   1.000
    Zr21    Zr   0.08405   0.98955   0.29467   1.000
    Zr22    Zr   0.61998   0.51081   0.25928   1.000
    Zr23    Zr   0.36698   0.78631   0.26027   1.000
    Zr24    Zr   0.16478   0.66627   0.63601   1.000
    Zr25    Zr   0.21676   0.74645   0.77229   1.000
    Zr26    Zr   0.91104   0.06831   0.77540   1.000
    Zr27    Zr   0.86223   0.00075   0.63854   1.000
    Zr28    Zr   0.37878   0.55540   0.80817   1.000
    Zr29    Zr   0.33361   0.47914   0.67130   1.000
    Zr30    Zr   0.68394   0.22105   0.80695   1.000
    Zr31    Zr   0.63654   0.15321   0.67013   1.000
    Zr32    Zr   0.66413   0.96897   0.63540   1.000
    Zr33    Zr   0.71747   0.02526   0.77155   1.000
    Zr34    Zr   0.41048   0.70795   0.77521   1.000
    Zr35    Zr   0.36271   0.63612   0.63834   1.000
    Zr36    Zr   0.87860   0.25347   0.80830   1.000
    Zr37    Zr   0.83477   0.19109   0.67143   1.000
    Zr38    Zr   0.18420   0.58609   0.80704   1.000
    Zr39    Zr   0.13596   0.51697   0.67027   1.000
    Zr40    Zr   0.33586   0.03099   0.36456   1.000
    Zr41    Zr   0.28252   0.97469   0.22846   1.000
    Zr42    Zr   0.58952   0.29202   0.22480   1.000
    Zr43    Zr   0.63729   0.36383   0.36168   1.000
    Zr44    Zr   0.12139   0.74649   0.19172   1.000
    Zr45    Zr   0.16521   0.80888   0.32850   1.000
    Zr46    Zr   0.81579   0.41386   0.19297   1.000
    Zr47    Zr   0.86402   0.48300   0.32975   1.000
    Zr48    Zr   0.83522   0.33369   0.36000   1.000
    Zr49    Zr   0.78321   0.25350   0.22771   1.000
    Zr50    Zr   0.08895   0.93165   0.22461   1.000
    Zr51    Zr   0.13776   0.99921   0.36140   1.000
    Zr52    Zr   0.62122   0.44456   0.19184   1.000
    Zr53    Zr   0.66635   0.52081   0.32863   1.000
    Zr54    Zr   0.31604   0.77890   0.19306   1.000
    Zr55    Zr   0.36345   0.84675   0.32987   1.000
    O56     O    0.66043   0.39189   0.19168   1.000
    O57     O    0.75772   0.37654   0.19224   1.000
    O58     O    0.64458   0.31561   0.20816   1.000
    O59     O    0.74143   0.29636   0.20961   1.000
    O60     O    0.16050   0.79911   0.19162   1.000
    O61     O    0.25783   0.81532   0.19229   1.000
    O62     O    0.14428   0.89169   0.20807   1.000
    O63     O    0.24107   0.91322   0.20999   1.000
    O64     O    0.12047   0.74753   0.22545   1.000
    O65     O    0.62060   0.47769   0.22556   1.000
    O66     O    0.84145   0.44381   0.22658   1.000
    O67     O    0.34151   0.78260   0.22667   1.000
    O68     O    0.08650   0.96060   0.25964   1.000
    O69     O    0.58682   0.29875   0.25985   1.000
    O70     O    0.80743   0.25918   0.26232   1.000
    O71     O    0.30708   0.00369   0.26301   1.000
    O72     O    0.14238   0.77873   0.29385   1.000
    O73     O    0.64317   0.51581   0.29396   1.000
    O74     O    0.86556   0.47838   0.29496   1.000
    O75     O    0.36522   0.81653   0.29507   1.000
    O76     O    0.11090   0.99438   0.32804   1.000
    O77     O    0.61070   0.33466   0.32829   1.000
    O78     O    0.83343   0.29928   0.32846   1.000
    O79     O    0.33374   0.03184   0.33106   1.000
    O80     O    0.20944   0.86764   0.34650   1.000
    O81     O    0.71008   0.47978   0.34648   1.000
    O82     O    0.80891   0.46087   0.34704   1.000
    O83     O    0.30856   0.88658   0.34719   1.000
    O84     O    0.79451   0.38622   0.36217   1.000
    O85     O    0.19571   0.96281   0.36295   1.000
    O86     O    0.69554   0.40129   0.36300   1.000
    O87     O    0.29477   0.97870   0.36453   1.000
    O88     O    0.70523   0.02126   0.63545   1.000
    O89     O    0.66625   0.96812   0.66892   1.000
    O90     O    0.80428   0.03715   0.63703   1.000
    O91     O    0.69143   0.11338   0.65282   1.000
    O92     O    0.79054   0.13232   0.65347   1.000
    O93     O    0.20549   0.61374   0.63585   1.000
    O94     O    0.30445   0.59866   0.63702   1.000
    O95     O    0.19108   0.53909   0.65298   1.000
    O96     O    0.28990   0.52018   0.65349   1.000
    O97     O    0.16656   0.70068   0.66955   1.000
    O98     O    0.38930   0.66529   0.67170   1.000
    O99     O    0.88908   0.00557   0.67192   1.000
    O100    O    0.63477   0.18343   0.70494   1.000
    O101    O    0.13442   0.52158   0.70505   1.000
    O102    O    0.35681   0.48415   0.70602   1.000
    O103    O    0.85760   0.22123   0.70613   1.000
    O104    O    0.69291   0.99627   0.73699   1.000
    O105    O    0.19255   0.74077   0.73769   1.000
    O106    O    0.41318   0.70121   0.74013   1.000
    O107    O    0.91348   0.03935   0.74035   1.000
    O108    O    0.65847   0.21735   0.77334   1.000
    O109    O    0.15854   0.55614   0.77343   1.000
    O110    O    0.37939   0.52228   0.77445   1.000
    O111    O    0.87952   0.25243   0.77456   1.000
    O112    O    0.75893   0.08674   0.79002   1.000
    O113    O    0.25855   0.70360   0.79040   1.000
    O114    O    0.35541   0.68435   0.79185   1.000
    O115    O    0.85571   0.10827   0.79194   1.000
    O116    O    0.74216   0.18464   0.80772   1.000
    O117    O    0.24227   0.62342   0.80777   1.000
    O118    O    0.33956   0.60808   0.80834   1.000
    O119    O    0.83949   0.20085   0.80840   1.000
    O120    O    0.77335   0.11088   0.72200   1.000
    O121    O    0.27327   0.61098   0.72210   1.000
    O122    O    0.72672   0.38898   0.27792   1.000
    O123    O    0.22664   0.88908   0.27802   1.000
    N124    N    0.49738   0.65084   0.25793   1.000
    O125    O    0.54318   0.59909   0.25827   1.000
    O126    O    0.44951   0.70140   0.25855   1.000
    N127    N    0.45135   0.05516   0.78115   1.000
    O128    O    0.36322   0.99805   0.60286   1.000
    O129    O    0.56317   0.17311   0.95656   1.000
    N130    N    0.54863   0.94447   0.21847   1.000
    O131    O    0.43681   0.82668   0.04326   1.000
    O132    O    0.63676   0.00175   0.39696   1.000
    N133    N    0.00275   0.39290   0.74214   1.000
    O134    O    0.05051   0.44291   0.74153   1.000
    O135    O    0.95707   0.34075   0.74181   1.000
    N136    N    0.05045   0.87802   0.70138   1.000
    O137    O    0.09477   0.82533   0.70179   1.000
    O138    O    0.00154   0.92776   0.70251   1.000
    N139    N    0.04818   0.27348   0.21791   1.000
    O140    O    0.13639   0.39451   0.39671   1.000
    O141    O    0.93652   0.21655   0.04293   1.000
    N142    N    0.55043   0.82269   0.70084   1.000
    O143    O    0.50151   0.77415   0.70206   1.000
    O144    O    0.59476   0.87577   0.70121   1.000
    N145    N    0.50260   0.34912   0.74206   1.000
    O146    O    0.45680   0.40086   0.74173   1.000
    O147    O    0.55047   0.29856   0.74145   1.000
    N148    N    0.44956   0.17727   0.29917   1.000
    O149    O    0.49848   0.22581   0.29793   1.000
    O150    O    0.40523   0.12419   0.29880   1.000
    N151    N    0.95179   0.72647   0.78173   1.000
    O152    O    0.86359   0.60544   0.60311   1.000
    O153    O    0.06347   0.78340   0.95690   1.000
    N154    N    0.94715   0.12193   0.29862   1.000
    O155    O    0.90402   0.17462   0.29821   1.000
    O156    O    0.99459   0.07219   0.29748   1.000
    N157    N    0.99724   0.60706   0.25787   1.000
    O158    O    0.04291   0.65920   0.25820   1.000
    O159    O    0.94948   0.55705   0.25847   1.000
loop_
    _geom_bond_atom_site_label_1
    _geom_bond_atom_site_label_2
    _geom_bond_distance
    _geom_bond_site_symmetry_2
    _ccdc_geom_bond_type
    Zr5    O56       1.03313      .   S
    Zr52   O56       1.03313      .   S
    Zr5    O57       1.03215      .   S
    Zr46   O57       1.03215      .   S
    Zr5    O58       1.04840      .   S
    Zr42   O58       1.04840      .   S
    Zr5    O59       1.04684      .   S
    Zr49   O59       1.04684      .   S
    Zr7    O60       1.03339      .   S
    Zr44   O60       1.03339      .   S
    Zr7    O61       1.03207      .   S
    Zr54   O61       1.03207      .   S
    Zr7    O62       1.04778      .   S
    Zr50   O62       1.04778      .   S
    Zr7    O63       1.04833      .   S
    Zr41   O63       1.04833      .   S
    Zr44   O64       0.63648      .   S
    Zr18   O64       0.63648      .   S
    Zr52   O65       0.63648      .   S
    Zr22   O65       0.63648      .   S
    Zr46   O66       0.63846      .   S
    Zr19   O66       0.63846      .   S
    Zr54   O67       0.63855      .   S
    Zr23   O67       0.63855      .   S
    Zr50   O68       0.63616      .   S
    Zr21   O68       0.63616      .   S
    Zr42   O69       0.63571      .   S
    Zr17   O69       0.63571      .   S
    Zr49   O70       0.63799      .   S
    Zr20   O70       0.63799      .   S
    Zr41   O71       0.63808  1_565   S
    Zr16   O71       0.63808      .   S
    Zr18   O72       0.63751      .   S
    Zr45   O72       0.63751      .   S
    Zr22   O73       0.63805      .   S
    Zr53   O73       0.63805      .   S
    Zr19   O74       0.63680      .   S
    Zr47   O74       0.63680      .   S
    Zr23   O75       0.63670      .   S
    Zr55   O75       0.63670      .   S
    Zr21   O76       0.63623      .   S
    Zr51   O76       0.63623      .   S
    Zr17   O77       0.63702      .   S
    Zr43   O77       0.63702      .   S
    Zr20   O78       0.61411      .   S
    Zr48   O78       0.61411      .   S
    Zr16   O79       0.63629      .   S
    Zr40   O79       0.63629      .   S
    Zr45   O80       1.03520      .   S
    Zr6    O80       1.03520      .   S
    Zr53   O81       1.03494      .   S
    Zr4    O81       1.03494      .   S
    Zr47   O82       1.04485      .   S
    Zr4    O82       1.04485      .   S
    Zr55   O83       1.04453      .   S
    Zr6    O83       1.04453      .   S
    Zr48   O84       1.03492      .   S
    Zr4    O84       1.03492      .   S
    Zr51   O85       1.03025      .   S
    Zr6    O85       1.03025      .   S
    Zr43   O86       1.03072      .   S
    Zr4    O86       1.03072      .   S
    Zr6    O87       1.04355      .   S
    Zr40   O87       1.04355  1_545   S
    Zr32   O88       1.04333  1_565   S
    Zr0    O88       1.04333      .   S
    Zr32   O89       0.63676      .   S
    Zr12   O89       0.63676      .   S
    Zr0    O90       1.03016      .   S
    Zr27   O90       1.03016      .   S
    Zr0    O91       1.04454      .   S
    Zr31   O91       1.04454      .   S
    Zr0    O92       1.03533      .   S
    Zr37   O92       1.03533      .   S
    Zr2    O93       1.04309      .   S
    Zr24   O93       1.04309      .   S
    Zr2    O94       1.03074      .   S
    Zr35   O94       1.03074      .   S
    Zr2    O95       1.04490      .   S
    Zr39   O95       1.04490      .   S
    Zr2    O96       1.03451      .   S
    Zr29   O96       1.03451      .   S
    Zr24   O97       0.63633      .   S
    Zr8    O97       0.63633      .   S
    Zr35   O98       0.63667      .   S
    Zr13   O98       0.63667      .   S
    Zr27   O99       0.63645      .   S
    Zr9    O99       0.63645      .   S
    Zr31   O100      0.63675      .   S
    Zr11   O100      0.63675      .   S
    Zr39   O101      0.63672      .   S
    Zr15   O101      0.63672      .   S
    Zr29   O102      0.63871      .   S
    Zr10   O102      0.63871      .   S
    Zr37   O103      0.63795      .   S
    Zr14   O103      0.63795      .   S
    Zr12   O104      0.63809      .   S
    Zr33   O104      0.63809  1_545   S
    Zr8    O105      0.63789      .   S
    Zr25   O105      0.63789      .   S
    Zr13   O106      0.63626      .   S
    Zr34   O106      0.63626      .   S
    Zr9    O107      0.63644      .   S
    Zr26   O107      0.63644      .   S
    Zr11   O108      0.63856      .   S
    Zr30   O108      0.63856      .   S
    Zr15   O109      0.63846      .   S
    Zr38   O109      0.63846      .   S
    Zr10   O110      0.63648      .   S
    Zr28   O110      0.63648      .   S
    Zr14   O111      0.63656      .   S
    Zr36   O111      0.63656      .   S
    Zr33   O112      1.04836      .   S
    Zr1    O112      1.04836      .   S
    Zr25   O113      1.04692      .   S
    Zr3    O113      1.04692      .   S
    Zr34   O114      1.04852      .   S
    Zr3    O114      1.04852      .   S
    Zr26   O115      1.04778      .   S
    Zr1    O115      1.04778      .   S
    Zr30   O116      1.03209      .   S
    Zr1    O116      1.03209      .   S
    Zr38   O117      1.03215      .   S
    Zr3    O117      1.03215      .   S
    Zr28   O118      1.03310      .   S
    Zr3    O118      1.03310      .   S
    Zr36   O119      1.03338      .   S
    Zr1    O119      1.03338      .   S
    Zr0    O120      1.43633      .   S
    Zr1    O120      1.43633      .   S
    Zr2    O121      1.43497      .   S
    Zr3    O121      1.43497      .   S
    Zr4    O122      1.43497      .   S
    Zr5    O122      1.43497      .   S
    Zr6    O123      1.43625      .   S
    Zr7    O123      1.43625      .   S
    N124   O125      1.07797      .   S
    Zr22   O125      1.82920      .   S
    N124   O126      1.07794      .   S
    Zr23   O126      1.82801      .   S
    N127   O128      3.04576  1_545   S
    Zr6    O128      4.06779      .   S
    N127   O129      3.07191      .   S
    Zr5    O129      4.08803  1_554   S
    N130   O131      3.06890      .   S
    Zr3    O131      4.08482  1_556   S
    N130   O132      3.04857  1_565   S
    Zr0    O132      4.07060      .   S
    N133   O134      1.07785      .   S
    Zr15   O134      1.82777      .   S
    N133   O135      1.07788  1_455   S
    Zr14   O135      1.82909      .   S
    N136   O137      1.07781      .   S
    Zr8    O137      1.82885      .   S
    N136   O138      1.07579      .   S
    Zr9    O138      1.82671  1_645   S
    N139   O140      3.04901      .   S
    Zr2    O140      4.07128      .   S
    N139   O141      3.06940  1_455   S
    Zr1    O141      4.08553  1_556   S
    N142   O143      1.07610      .   S
    Zr13   O143      1.82718      .   S
    N142   O144      1.07817      .   S
    Zr12   O144      1.82941      .   S
    N145   O146      1.07793      .   S
    Zr10   O146      1.82916      .   S
    N145   O147      1.07799      .   S
    Zr11   O147      1.82807      .   S
    N148   O149      1.07623      .   S
    Zr17   O149      1.82765      .   S
    N148   O150      1.07819      .   S
    Zr16   O150      1.82942      .   S
    N151   O152      3.04635      .   S
    Zr4    O152      4.06853      .   S
    N151   O153      3.07241  1_655   S
    Zr7    O153      4.08873  1_554   S
    N154   O155      1.06777      .   S
    Zr20   O155      1.81900      .   S
    N154   O156      1.06184      .   S
    Zr21   O156      1.86496  1_465   S
    N157   O158      1.07786  1_655   S
    Zr18   O158      1.82909      .   S
    N157   O159      1.07783      .   S
    Zr19   O159      1.82784      .   S
