# CIF file generated by openbabel 2.4.90, see http://openbabel.sf.net
data_I
_chemical_name_common ''
_cell_length_a 9.387
_cell_length_b 10.539
_cell_length_c 10.5695
_cell_angle_alpha 91.038
_cell_angle_beta 99.331
_cell_angle_gamma 99.599
_space_group_name_H-M_alt 'P 1'
_space_group_name_Hall 'P 1'
loop_
    _symmetry_equiv_pos_as_xyz
    x,y,z
loop_
    _atom_site_label
    _atom_site_type_symbol
    _atom_site_fract_x
    _atom_site_fract_y
    _atom_site_fract_z
    _atom_site_occupancy
    Zr0     Zr   0.75012   0.97966   0.02103   1.000
    Zr1     Zr   0.24986   0.02034   0.97898   1.000
    N2      N    1.00000   0.50000   0.00001   1.000
    O3      O    0.91559   0.27565   0.01481   1.000
    O4      O    0.08441   0.72435   0.98520   1.000
    O5      O    0.89445   0.69875   0.01055   1.000
    O6      O    0.10555   0.30125   0.98947   1.000
    N7      N    0.49999   0.00000   0.50001   1.000
    O8      O    0.60499   0.99088   0.30110   1.000
    O9      O    0.58572   0.98538   0.72401   1.000
    O10     O    0.39500   0.00912   0.69891   1.000
    O11     O    0.41427   0.01461   0.27600   1.000
loop_
    _geom_bond_atom_site_label_1
    _geom_bond_atom_site_label_2
    _geom_bond_distance
    _geom_bond_site_symmetry_2
    _ccdc_geom_bond_type
    N2     O3        2.38151      .   S
    Zr0    O3        3.25157  1_565   S
    N2     O4        2.38150  1_654   S
    Zr1    O4        3.25155  1_545   S
    N2     O5        2.46998      .   S
    Zr0    O5        3.46219      .   S
    N2     O6        2.46997  1_654   S
    Zr1    O6        3.46216      .   S
    N7     O8        2.46910  1_545   S
    Zr0    O8        3.46145      .   S
    N7     O9        2.39027  1_545   S
    Zr0    O9        3.27233  1_554   S
    N7     O10       2.46910      .   S
    Zr1    O10       3.46145      .   S
    N7     O11       2.39028      .   S
    Zr1    O11       3.27234  1_556   S
