# CIF file generated by openbabel 2.4.90, see http://openbabel.sf.net
data_I
_chemical_name_common ''
_cell_length_a 14.788
_cell_length_b 18.115
_cell_length_c 19.486
_cell_angle_alpha 90.005
_cell_angle_beta 89.99
_cell_angle_gamma 90.07
_space_group_name_H-M_alt 'P 1'
_space_group_name_Hall 'P 1'
loop_
    _symmetry_equiv_pos_as_xyz
    x,y,z
loop_
    _atom_site_label
    _atom_site_type_symbol
    _atom_site_fract_x
    _atom_site_fract_y
    _atom_site_fract_z
    _atom_site_occupancy
    C0      C    0.32442   0.25009   0.49972   1.000
    C1      C    0.32448   0.75013   0.49979   1.000
    C2      C    0.82445   0.25011   0.49978   1.000
    C3      C    0.82447   0.75011   0.49975   1.000
    C4      C    0.07444   0.24991   0.50017   1.000
    C5      C    0.07446   0.74993   0.50020   1.000
    C6      C    0.57442   0.24993   0.50021   1.000
    C7      C    0.57448   0.74991   0.50017   1.000
    C8      C    0.32427   0.49997   0.99970   1.000
    C9      C    0.32428   0.99997   0.99968   1.000
    C10     C    0.82428   0.49996   0.99969   1.000
    C11     C    0.82429   0.99997   0.99971   1.000
    C12     C    0.07429   0.00006   0.00024   1.000
    C13     C    0.07427   0.50005   0.00029   1.000
    C14     C    0.57429   0.00005   0.00028   1.000
    C15     C    0.57428   0.50006   0.00025   1.000
    C16     C    0.05461   0.14465   0.68989   1.000
    C17     C    0.05459   0.64467   0.68991   1.000
    C18     C    0.55460   0.14466   0.68994   1.000
    C19     C    0.55462   0.64466   0.68990   1.000
    C20     C    0.05398   0.10732   0.81426   1.000
    C21     C    0.05393   0.60734   0.81428   1.000
    C22     C    0.55398   0.10733   0.81430   1.000
    C23     C    0.55398   0.60735   0.81427   1.000
    C24     C    0.34416   0.11531   0.81710   1.000
    C25     C    0.34411   0.61530   0.81716   1.000
    C26     C    0.84416   0.11530   0.81714   1.000
    C27     C    0.84417   0.61531   0.81712   1.000
    C28     C    0.34480   0.15267   0.69276   1.000
    C29     C    0.34478   0.65268   0.69281   1.000
    C30     C    0.84479   0.15268   0.69279   1.000
    C31     C    0.84482   0.65266   0.69277   1.000
    C32     C    0.19944   0.35742   0.49341   1.000
    C33     C    0.19945   0.85741   0.49292   1.000
    C34     C    0.69945   0.35741   0.49301   1.000
    C35     C    0.69946   0.85741   0.49318   1.000
    C36     C    0.30472   0.35529   0.31025   1.000
    C37     C    0.30467   0.85529   0.31026   1.000
    C38     C    0.80466   0.35527   0.31025   1.000
    C39     C    0.80474   0.85531   0.31024   1.000
    C40     C    0.30390   0.39262   0.18588   1.000
    C41     C    0.30386   0.89261   0.18580   1.000
    C42     C    0.80384   0.39260   0.18588   1.000
    C43     C    0.80394   0.89263   0.18587   1.000
    C44     C    0.09399   0.38480   0.18262   1.000
    C45     C    0.09409   0.88479   0.18262   1.000
    C46     C    0.59406   0.38479   0.18260   1.000
    C47     C    0.59402   0.88480   0.18262   1.000
    C48     C    0.09481   0.34743   0.30697   1.000
    C49     C    0.09489   0.84741   0.30696   1.000
    C50     C    0.59489   0.34740   0.30694   1.000
    C51     C    0.59484   0.84743   0.30696   1.000
    C52     C    0.44907   0.14263   0.50698   1.000
    C53     C    0.44908   0.64263   0.50686   1.000
    C54     C    0.94908   0.14263   0.50690   1.000
    C55     C    0.94909   0.64263   0.50694   1.000
    C56     C    0.05471   0.10539   0.18985   1.000
    C57     C    0.05474   0.60540   0.18994   1.000
    C58     C    0.55473   0.10536   0.18992   1.000
    C59     C    0.55472   0.60539   0.18990   1.000
    C60     C    0.05413   0.14272   0.31420   1.000
    C61     C    0.05423   0.64274   0.31431   1.000
    C62     C    0.55418   0.14270   0.31400   1.000
    C63     C    0.55420   0.64271   0.31420   1.000
    C64     C    0.34429   0.13469   0.31715   1.000
    C65     C    0.34439   0.63470   0.31715   1.000
    C66     C    0.84433   0.13470   0.31718   1.000
    C67     C    0.84436   0.63469   0.31713   1.000
    C68     C    0.34488   0.09732   0.19280   1.000
    C69     C    0.34490   0.59731   0.19279   1.000
    C70     C    0.84489   0.09732   0.19280   1.000
    C71     C    0.84489   0.59733   0.19277   1.000
    C72     C    0.19900   0.39262   0.99303   1.000
    C73     C    0.19901   0.89262   0.99320   1.000
    C74     C    0.69901   0.39261   0.99314   1.000
    C75     C    0.69902   0.89263   0.99308   1.000
    C76     C    0.30460   0.39463   0.81000   1.000
    C77     C    0.30469   0.89459   0.80995   1.000
    C78     C    0.80468   0.39461   0.80996   1.000
    C79     C    0.80463   0.89461   0.80000   1.000
    C80     C    0.30406   0.35730   0.68564   1.000
    C81     C    0.30428   0.85726   0.68558   1.000
    C82     C    0.80425   0.35727   0.68559   1.000
    C83     C    0.80414   0.85728   0.68562   1.000
    C84     C    0.09442   0.36537   0.68290   1.000
    C85     C    0.09431   0.86537   0.68286   1.000
    C86     C    0.59424   0.36535   0.68282   1.000
    C87     C    0.59447   0.86538   0.68292   1.000
    C88     C    0.09486   0.40275   0.80726   1.000
    C89     C    0.09480   0.90274   0.80722   1.000
    C90     C    0.59479   0.40273   0.80717   1.000
    C91     C    0.59488   0.90276   0.80728   1.000
    C92     C    0.44936   0.10739   0.00000   1.000
    C93     C    0.44936   0.60740   0.00000   1.000
    C94     C    0.94937   0.10740   0.00000   1.000
    C95     C    0.94936   0.60740   0.00000   1.000
    C96     C    0.20023   0.17397   0.61076   1.000
    C97     C    0.20023   0.67402   0.61080   1.000
    C98     C    0.70022   0.17402   0.61082   1.000
    C99     C    0.70025   0.67398   0.61077   1.000
    C100    C    0.19977   0.15036   0.68424   1.000
    C101    C    0.19975   0.65038   0.68428   1.000
    C102    C    0.69976   0.15038   0.68420   1.000
    C103    C    0.69978   0.65036   0.68425   1.000
    C104    C    0.11748   0.13797   0.71800   1.000
    C105    C    0.11745   0.63799   0.71833   1.000
    C106    C    0.61747   0.13798   0.71834   1.000
    C107    C    0.61749   0.63799   0.71830   1.000
    C108    C    0.11710   0.11765   0.78710   1.000
    C109    C    0.11706   0.61767   0.78713   1.000
    C110    C    0.61710   0.11766   0.78714   1.000
    C111    C    0.61711   0.61767   0.78711   1.000
    C112    C    0.19899   0.10965   0.82275   1.000
    C113    C    0.19894   0.60966   0.82279   1.000
    C114    C    0.69899   0.10965   0.82279   1.000
    C115    C    0.69899   0.60967   0.82270   1.000
    C116    C    0.28129   0.12209   0.78872   1.000
    C117    C    0.28125   0.62210   0.78877   1.000
    C118    C    0.78129   0.12209   0.78875   1.000
    C119    C    0.78130   0.62210   0.78873   1.000
    C120    C    0.28165   0.14243   0.71992   1.000
    C121    C    0.28163   0.64244   0.71990   1.000
    C122    C    0.78165   0.14243   0.71995   1.000
    C123    C    0.78167   0.64243   0.71993   1.000
    C124    C    0.19852   0.08517   0.89597   1.000
    C125    C    0.19846   0.58518   0.89601   1.000
    C126    C    0.69853   0.08517   0.89601   1.000
    C127    C    0.69853   0.58518   0.89598   1.000
    C128    C    0.45045   0.32600   0.38910   1.000
    C129    C    0.45039   0.82603   0.38916   1.000
    C130    C    0.95038   0.32601   0.38910   1.000
    C131    C    0.95045   0.82602   0.38915   1.000
    C132    C    0.44988   0.34964   0.31567   1.000
    C133    C    0.44984   0.84966   0.31569   1.000
    C134    C    0.94982   0.34964   0.31560   1.000
    C135    C    0.94990   0.84966   0.31568   1.000
    C136    C    0.36754   0.36200   0.28175   1.000
    C137    C    0.36750   0.86200   0.28176   1.000
    C138    C    0.86748   0.36199   0.28176   1.000
    C139    C    0.86757   0.86201   0.28175   1.000
    C140    C    0.36705   0.38232   0.21294   1.000
    C141    C    0.36701   0.88232   0.21295   1.000
    C142    C    0.86700   0.38230   0.21295   1.000
    C143    C    0.86709   0.88233   0.21295   1.000
    C144    C    0.44888   0.39037   0.17717   1.000
    C145    C    0.44884   0.89037   0.17718   1.000
    C146    C    0.94883   0.39036   0.17718   1.000
    C147    C    0.94892   0.89037   0.17718   1.000
    C148    C    0.03116   0.37797   0.21100   1.000
    C149    C    0.03125   0.87797   0.21109   1.000
    C150    C    0.53123   0.37796   0.21100   1.000
    C151    C    0.53119   0.87798   0.21109   1.000
    C152    C    0.03163   0.35763   0.27900   1.000
    C153    C    0.03172   0.85763   0.27989   1.000
    C154    C    0.53171   0.35762   0.27987   1.000
    C155    C    0.53167   0.85764   0.27900   1.000
    C156    C    0.44832   0.41484   0.10395   1.000
    C157    C    0.44829   0.91484   0.10396   1.000
    C158    C    0.94828   0.41483   0.10396   1.000
    C159    C    0.94838   0.91485   0.10396   1.000
    C160    C    0.20030   0.07604   0.11077   1.000
    C161    C    0.20030   0.57603   0.11081   1.000
    C162    C    0.70031   0.07601   0.11082   1.000
    C163    C    0.70029   0.57604   0.11078   1.000
    C164    C    0.19986   0.09965   0.18425   1.000
    C165    C    0.19988   0.59965   0.18429   1.000
    C166    C    0.69987   0.09964   0.18400   1.000
    C167    C    0.69987   0.59966   0.18426   1.000
    C168    C    0.11759   0.11206   0.21827   1.000
    C169    C    0.11763   0.61207   0.21834   1.000
    C170    C    0.61761   0.11204   0.21833   1.000
    C171    C    0.61761   0.61206   0.21831   1.000
    C172    C    0.11724   0.13237   0.28708   1.000
    C173    C    0.11732   0.63239   0.28715   1.000
    C174    C    0.61727   0.13236   0.28714   1.000
    C175    C    0.61729   0.63238   0.28712   1.000
    C176    C    0.19913   0.14037   0.32275   1.000
    C177    C    0.19925   0.64039   0.32280   1.000
    C178    C    0.69918   0.14036   0.32280   1.000
    C179    C    0.69921   0.64036   0.32277   1.000
    C180    C    0.28141   0.12791   0.28875   1.000
    C181    C    0.28150   0.62792   0.28876   1.000
    C182    C    0.78145   0.12791   0.28878   1.000
    C183    C    0.78147   0.62791   0.28870   1.000
    C184    C    0.28176   0.10758   0.21994   1.000
    C185    C    0.28180   0.60758   0.21996   1.000
    C186    C    0.78178   0.10757   0.21998   1.000
    C187    C    0.78178   0.60758   0.21993   1.000
    C188    C    0.19873   0.16483   0.39598   1.000
    C189    C    0.19892   0.66485   0.39603   1.000
    C190    C    0.69880   0.16483   0.39603   1.000
    C191    C    0.69886   0.66483   0.39599   1.000
    C192    C    0.45019   0.42401   0.88915   1.000
    C193    C    0.45021   0.92400   0.88917   1.000
    C194    C    0.95021   0.42400   0.88917   1.000
    C195    C    0.95019   0.92400   0.88916   1.000
    C196    C    0.44975   0.40039   0.81567   1.000
    C197    C    0.44984   0.90038   0.81569   1.000
    C198    C    0.94983   0.40038   0.81569   1.000
    C199    C    0.94978   0.90038   0.81560   1.000
    C200    C    0.36749   0.38797   0.78161   1.000
    C201    C    0.36761   0.88795   0.78158   1.000
    C202    C    0.86760   0.38795   0.78159   1.000
    C203    C    0.86753   0.88796   0.78161   1.000
    C204    C    0.36716   0.36765   0.71281   1.000
    C205    C    0.36736   0.86762   0.71277   1.000
    C206    C    0.86733   0.36763   0.71278   1.000
    C207    C    0.86723   0.86764   0.71280   1.000
    C208    C    0.44908   0.35966   0.67716   1.000
    C209    C    0.44933   0.85966   0.67718   1.000
    C210    C    0.94929   0.35966   0.67718   1.000
    C211    C    0.94917   0.85967   0.67717   1.000
    C212    C    0.03151   0.37213   0.71126   1.000
    C213    C    0.03141   0.87213   0.71123   1.000
    C214    C    0.53135   0.37213   0.71120   1.000
    C215    C    0.53155   0.87214   0.71120   1.000
    C216    C    0.03176   0.39248   0.78006   1.000
    C217    C    0.03169   0.89247   0.78000   1.000
    C218    C    0.53167   0.39247   0.78000   1.000
    C219    C    0.53179   0.89248   0.78000   1.000
    C220    C    0.44866   0.33520   0.60394   1.000
    C221    C    0.44908   0.83519   0.60396   1.000
    C222    C    0.94900   0.33519   0.60395   1.000
    C223    C    0.94881   0.83519   0.60395   1.000
    C224    C    0.27668   0.18394   0.58194   1.000
    C225    C    0.27668   0.68403   0.58201   1.000
    C226    C    0.77667   0.18401   0.58201   1.000
    C227    C    0.77670   0.68398   0.58196   1.000
    C228    C    0.12414   0.18362   0.58128   1.000
    C229    C    0.12415   0.68369   0.58130   1.000
    C230    C    0.62414   0.18369   0.58134   1.000
    C231    C    0.62416   0.68364   0.58130   1.000
    C232    C    0.12211   0.07491   0.92480   1.000
    C233    C    0.12204   0.57492   0.92480   1.000
    C234    C    0.62211   0.07491   0.92483   1.000
    C235    C    0.62212   0.57492   0.92481   1.000
    C236    C    0.27461   0.07484   0.92527   1.000
    C237    C    0.27454   0.57485   0.92531   1.000
    C238    C    0.77461   0.07484   0.92530   1.000
    C239    C    0.77461   0.57485   0.92528   1.000
    C240    C    0.19941   0.30389   0.49706   1.000
    C241    C    0.19944   0.80392   0.49710   1.000
    C242    C    0.69942   0.30391   0.49712   1.000
    C243    C    0.69945   0.80390   0.49705   1.000
    C244    C    0.02682   0.31595   0.41785   1.000
    C245    C    0.02690   0.81594   0.41784   1.000
    C246    C    0.52692   0.31594   0.41782   1.000
    C247    C    0.52685   0.81595   0.41785   1.000
    C248    C    0.37439   0.31641   0.41870   1.000
    C249    C    0.37432   0.81646   0.41875   1.000
    C250    C    0.87431   0.31644   0.41874   1.000
    C251    C    0.87439   0.81644   0.41874   1.000
    C252    C    0.37191   0.42512   0.07520   1.000
    C253    C    0.37189   0.92512   0.07520   1.000
    C254    C    0.87188   0.42511   0.07520   1.000
    C255    C    0.87197   0.92513   0.07520   1.000
    C256    C    0.02436   0.42514   0.07461   1.000
    C257    C    0.02446   0.92515   0.07460   1.000
    C258    C    0.52441   0.42514   0.07458   1.000
    C259    C    0.52438   0.92515   0.07461   1.000
    C260    C    0.44930   0.19612   0.50288   1.000
    C261    C    0.44933   0.69614   0.50289   1.000
    C262    C    0.94931   0.19613   0.50289   1.000
    C263    C    0.94934   0.69613   0.50280   1.000
    C264    C    0.27673   0.06607   0.08190   1.000
    C265    C    0.27672   0.56605   0.08200   1.000
    C266    C    0.77673   0.06603   0.08202   1.000
    C267    C    0.77671   0.56607   0.08196   1.000
    C268    C    0.12420   0.06640   0.08127   1.000
    C269    C    0.12419   0.56637   0.08133   1.000
    C270    C    0.62420   0.06637   0.08132   1.000
    C271    C    0.62417   0.56639   0.08100   1.000
    C272    C    0.12236   0.17511   0.42481   1.000
    C273    C    0.12258   0.67513   0.42490   1.000
    C274    C    0.62244   0.17512   0.42480   1.000
    C275    C    0.62251   0.67512   0.42485   1.000
    C276    C    0.27485   0.17514   0.42526   1.000
    C277    C    0.27508   0.67514   0.42527   1.000
    C278    C    0.77494   0.17514   0.42530   1.000
    C279    C    0.77500   0.67514   0.42525   1.000
    C280    C    0.19917   0.44612   0.99708   1.000
    C281    C    0.19918   0.94614   0.99700   1.000
    C282    C    0.69918   0.44613   0.99707   1.000
    C283    C    0.69919   0.94613   0.99700   1.000
    C284    C    0.02662   0.43394   0.91801   1.000
    C285    C    0.02661   0.93397   0.91798   1.000
    C286    C    0.52663   0.43397   0.91795   1.000
    C287    C    0.52663   0.93396   0.91801   1.000
    C288    C    0.37410   0.43368   0.91863   1.000
    C289    C    0.37410   0.93367   0.91862   1.000
    C290    C    0.87410   0.43366   0.91862   1.000
    C291    C    0.87409   0.93367   0.91863   1.000
    C292    C    0.37226   0.32492   0.57510   1.000
    C293    C    0.37274   0.82490   0.57506   1.000
    C294    C    0.87265   0.32490   0.57508   1.000
    C295    C    0.87242   0.82492   0.57511   1.000
    C296    C    0.02514   0.32489   0.57472   1.000
    C297    C    0.02491   0.82488   0.57467   1.000
    C298    C    0.52476   0.32487   0.57464   1.000
    C299    C    0.52524   0.82489   0.57474   1.000
    C300    C    0.44931   0.05389   0.00289   1.000
    C301    C    0.44930   0.55390   0.00289   1.000
    C302    C    0.94932   0.05389   0.00289   1.000
    C303    C    0.94931   0.55389   0.00290   1.000
    O304    O    0.44934   0.08064   0.00145   1.000
    O305    O    0.44933   0.58065   0.00145   1.000
    O306    O    0.94935   0.08065   0.00145   1.000
    O307    O    0.94934   0.58065   0.00145   1.000
    O308    O    0.04937   0.96261   0.03742   1.000
    O309    O    0.09925   0.03323   0.04076   1.000
    O310    O    0.05045   0.96701   0.95911   1.000
    O311    O    0.09820   0.03748   0.96252   1.000
    O312    O    0.54935   0.46260   0.03741   1.000
    O313    O    0.59923   0.53322   0.04063   1.000
    O314    O    0.55046   0.46702   0.95910   1.000
    O315    O    0.59820   0.53749   0.96253   1.000
    O316    O    0.54934   0.96260   0.03745   1.000
    O317    O    0.59925   0.03321   0.04080   1.000
    O318    O    0.55046   0.96700   0.95915   1.000
    O319    O    0.59820   0.03748   0.96256   1.000
    O320    O    0.04931   0.46260   0.03745   1.000
    O321    O    0.09923   0.53321   0.04081   1.000
    O322    O    0.05045   0.46700   0.95915   1.000
    O323    O    0.09816   0.53749   0.96255   1.000
    O324    O    0.88681   0.02693   0.00130   1.000
    O325    O    0.38679   0.52693   0.00129   1.000
    O326    O    0.38680   0.02693   0.00128   1.000
    O327    O    0.88680   0.52693   0.00129   1.000
    O328    O    0.48637   0.41999   0.08926   1.000
    O329    O    0.98642   0.92000   0.08928   1.000
    O330    O    0.48634   0.92000   0.08929   1.000
    O331    O    0.98632   0.41999   0.08929   1.000
    O332    O    0.91018   0.91999   0.08958   1.000
    O333    O    0.84813   0.96255   0.03746   1.000
    O334    O    0.91008   0.41997   0.08958   1.000
    O335    O    0.84808   0.46254   0.03745   1.000
    O336    O    0.41009   0.91999   0.08958   1.000
    O337    O    0.34809   0.96255   0.03744   1.000
    O338    O    0.41012   0.41998   0.08958   1.000
    O339    O    0.34809   0.46254   0.03745   1.000
    O340    O    0.66223   0.57121   0.09589   1.000
    O341    O    0.16225   0.07122   0.09602   1.000
    O342    O    0.66226   0.07119   0.09607   1.000
    O343    O    0.16224   0.57120   0.09607   1.000
    O344    O    0.23852   0.07105   0.09634   1.000
    O345    O    0.30051   0.03302   0.04079   1.000
    O346    O    0.73850   0.57105   0.09637   1.000
    O347    O    0.80049   0.53302   0.04082   1.000
    O348    O    0.23851   0.57104   0.09641   1.000
    O349    O    0.30049   0.53301   0.04085   1.000
    O350    O    0.73852   0.07102   0.09642   1.000
    O351    O    0.80051   0.03300   0.04087   1.000
    O352    O    0.44860   0.40260   0.14056   1.000
    O353    O    0.44857   0.90261   0.14057   1.000
    O354    O    0.94855   0.40259   0.14057   1.000
    O355    O    0.94865   0.90261   0.14057   1.000
    O356    O    0.20008   0.08785   0.14751   1.000
    O357    O    0.70008   0.58785   0.14752   1.000
    O358    O    0.20009   0.58784   0.14755   1.000
    O359    O    0.70009   0.08783   0.14741   1.000
    O360    O    0.49005   0.38416   0.19409   1.000
    O361    O    0.40796   0.38634   0.19506   1.000
    O362    O    0.99009   0.88417   0.19414   1.000
    O363    O    0.90801   0.88635   0.19507   1.000
    O364    O    0.98999   0.38416   0.19409   1.000
    O365    O    0.90791   0.38633   0.19507   1.000
    O366    O    0.49001   0.88417   0.19414   1.000
    O367    O    0.40792   0.88634   0.19507   1.000
    O368    O    0.56264   0.38138   0.19680   1.000
    O369    O    0.56260   0.88139   0.19686   1.000
    O370    O    0.06267   0.88138   0.19686   1.000
    O371    O    0.06258   0.38138   0.19681   1.000
    O372    O    0.65874   0.10584   0.20117   1.000
    O373    O    0.74082   0.10360   0.20199   1.000
    O374    O    0.15873   0.10586   0.20126   1.000
    O375    O    0.24081   0.10362   0.20210   1.000
    O376    O    0.65874   0.60586   0.20129   1.000
    O377    O    0.74082   0.60362   0.20210   1.000
    O378    O    0.15876   0.60586   0.20132   1.000
    O379    O    0.24084   0.60361   0.20213   1.000
    O380    O    0.33543   0.88747   0.19938   1.000
    O381    O    0.83552   0.88748   0.19941   1.000
    O382    O    0.83542   0.38745   0.19942   1.000
    O383    O    0.33547   0.38747   0.19941   1.000
    O384    O    0.08615   0.10872   0.20406   1.000
    O385    O    0.58617   0.60872   0.20411   1.000
    O386    O    0.58617   0.10870   0.20413   1.000
    O387    O    0.08618   0.60873   0.20414   1.000
    O388    O    0.81333   0.60245   0.20635   1.000
    O389    O    0.31335   0.60244   0.20637   1.000
    O390    O    0.81333   0.10245   0.20639   1.000
    O391    O    0.31332   0.10245   0.20637   1.000
    O392    O    0.03140   0.36780   0.24500   1.000
    O393    O    0.53147   0.36779   0.24544   1.000
    O394    O    0.03149   0.86780   0.24549   1.000
    O395    O    0.53143   0.86781   0.24504   1.000
    O396    O    0.36730   0.37216   0.24735   1.000
    O397    O    0.86733   0.87217   0.24735   1.000
    O398    O    0.86724   0.37215   0.24736   1.000
    O399    O    0.36725   0.87216   0.24736   1.000
    O400    O    0.11741   0.12222   0.25268   1.000
    O401    O    0.61745   0.62222   0.25272   1.000
    O402    O    0.61744   0.12220   0.25274   1.000
    O403    O    0.11748   0.62223   0.25275   1.000
    O404    O    0.78162   0.61775   0.25432   1.000
    O405    O    0.28159   0.11775   0.25434   1.000
    O406    O    0.28165   0.61775   0.25436   1.000
    O407    O    0.78161   0.11774   0.25438   1.000
    O408    O    0.56325   0.85254   0.29298   1.000
    O409    O    0.49075   0.85365   0.29735   1.000
    O410    O    0.06322   0.35253   0.29299   1.000
    O411    O    0.99073   0.35364   0.29730   1.000
    O412    O    0.56330   0.35251   0.29341   1.000
    O413    O    0.49079   0.35363   0.29777   1.000
    O414    O    0.06330   0.85252   0.29343   1.000
    O415    O    0.99081   0.85364   0.29779   1.000
    O416    O    0.83615   0.85866   0.29600   1.000
    O417    O    0.90873   0.85584   0.29872   1.000
    O418    O    0.33613   0.35864   0.29600   1.000
    O419    O    0.40871   0.35582   0.29871   1.000
    O420    O    0.83607   0.35863   0.29601   1.000
    O421    O    0.90865   0.35582   0.29868   1.000
    O422    O    0.33609   0.85865   0.29601   1.000
    O423    O    0.40867   0.85583   0.29873   1.000
    O424    O    0.08569   0.13755   0.30064   1.000
    O425    O    0.15818   0.13637   0.30491   1.000
    O426    O    0.58574   0.63754   0.30066   1.000
    O427    O    0.65825   0.63637   0.30494   1.000
    O428    O    0.58572   0.13753   0.30057   1.000
    O429    O    0.65823   0.13636   0.30497   1.000
    O430    O    0.08578   0.63757   0.30073   1.000
    O431    O    0.15828   0.63639   0.30497   1.000
    O432    O    0.81291   0.63130   0.30292   1.000
    O433    O    0.74034   0.63414   0.30574   1.000
    O434    O    0.31285   0.13130   0.30295   1.000
    O435    O    0.24027   0.13414   0.30575   1.000
    O436    O    0.31295   0.63131   0.30296   1.000
    O437    O    0.24037   0.63415   0.30578   1.000
    O438    O    0.81289   0.13131   0.30298   1.000
    O439    O    0.74031   0.13414   0.30579   1.000
    O440    O    0.95010   0.33783   0.35235   1.000
    O441    O    0.45016   0.33782   0.35239   1.000
    O442    O    0.95018   0.83784   0.35242   1.000
    O443    O    0.45011   0.83784   0.35243   1.000
    O444    O    0.19893   0.15260   0.35937   1.000
    O445    O    0.69903   0.65260   0.35938   1.000
    O446    O    0.19908   0.65262   0.35942   1.000
    O447    O    0.69899   0.15260   0.35942   1.000
    O448    O    0.98860   0.32098   0.40348   1.000
    O449    O    0.91234   0.32123   0.40392   1.000
    O450    O    0.48869   0.32097   0.40346   1.000
    O451    O    0.41242   0.32121   0.40390   1.000
    O452    O    0.98868   0.82098   0.40350   1.000
    O453    O    0.91242   0.82123   0.40394   1.000
    O454    O    0.48862   0.82099   0.40351   1.000
    O455    O    0.41236   0.82125   0.40396   1.000
    O456    O    0.16055   0.16997   0.41040   1.000
    O457    O    0.23679   0.16998   0.41062   1.000
    O458    O    0.66068   0.66997   0.41042   1.000
    O459    O    0.73693   0.66999   0.41062   1.000
    O460    O    0.16075   0.66999   0.41047   1.000
    O461    O    0.23700   0.66999   0.41065   1.000
    O462    O    0.66062   0.16997   0.41042   1.000
    O463    O    0.73687   0.16999   0.41067   1.000
    O464    O    0.55067   0.28294   0.45902   1.000
    O465    O    0.05068   0.78293   0.45902   1.000
    O466    O    0.05063   0.28293   0.45901   1.000
    O467    O    0.55067   0.78293   0.45901   1.000
    O468    O    0.34941   0.28325   0.45921   1.000
    O469    O    0.84938   0.28328   0.45926   1.000
    O470    O    0.84943   0.78327   0.45925   1.000
    O471    O    0.34940   0.78330   0.45927   1.000
    O472    O    0.59843   0.21253   0.46251   1.000
    O473    O    0.09840   0.21251   0.46249   1.000
    O474    O    0.59849   0.71251   0.46251   1.000
    O475    O    0.09852   0.71253   0.46255   1.000
    O476    O    0.79973   0.71262   0.46250   1.000
    O477    O    0.29964   0.21261   0.46249   1.000
    O478    O    0.29978   0.71264   0.46253   1.000
    O479    O    0.79970   0.21263   0.46254   1.000
    O480    O    0.19945   0.83066   0.49501   1.000
    O481    O    0.69944   0.33066   0.49507   1.000
    O482    O    0.69946   0.83066   0.49511   1.000
    O483    O    0.19943   0.33066   0.49524   1.000
    O484    O    0.63697   0.77690   0.49861   1.000
    O485    O    0.13692   0.27690   0.49862   1.000
    O486    O    0.13695   0.77692   0.49865   1.000
    O487    O    0.63692   0.27692   0.49867   1.000
    O488    O    0.34834   0.28750   0.53741   1.000
    O489    O    0.30055   0.21701   0.54083   1.000
    O490    O    0.84844   0.78751   0.53743   1.000
    O491    O    0.80058   0.71704   0.54086   1.000
    O492    O    0.84855   0.28751   0.53743   1.000
    O493    O    0.80056   0.21706   0.54090   1.000
    O494    O    0.34861   0.78752   0.53743   1.000
    O495    O    0.30058   0.71708   0.54090   1.000
    O496    O    0.01187   0.22302   0.50153   1.000
    O497    O    0.04979   0.28740   0.53744   1.000
    O498    O    0.09929   0.21677   0.54073   1.000
    O499    O    0.51191   0.72302   0.50153   1.000
    O500    O    0.54986   0.78740   0.53746   1.000
    O501    O    0.59932   0.71677   0.54074   1.000
    O502    O    0.01190   0.72303   0.50150   1.000
    O503    O    0.04968   0.78740   0.53744   1.000
    O504    O    0.09930   0.71681   0.54075   1.000
    O505    O    0.51186   0.22303   0.50155   1.000
    O506    O    0.54959   0.28740   0.53743   1.000
    O507    O    0.59928   0.21681   0.54078   1.000
    O508    O    0.94921   0.66938   0.50487   1.000
    O509    O    0.44918   0.16938   0.50493   1.000
    O510    O    0.44921   0.66938   0.50487   1.000
    O511    O    0.94920   0.16938   0.50490   1.000
    O512    O    0.48671   0.33003   0.58929   1.000
    O513    O    0.98686   0.83003   0.58931   1.000
    O514    O    0.98707   0.33004   0.58934   1.000
    O515    O    0.48716   0.83004   0.58935   1.000
    O516    O    0.41091   0.83005   0.58951   1.000
    O517    O    0.91083   0.33004   0.58952   1.000
    O518    O    0.41046   0.33006   0.58952   1.000
    O519    O    0.91062   0.83006   0.58953   1.000
    O520    O    0.16218   0.17880   0.59602   1.000
    O521    O    0.66220   0.67881   0.59604   1.000
    O522    O    0.16219   0.67886   0.59605   1.000
    O523    O    0.66218   0.17886   0.59608   1.000
    O524    O    0.23845   0.17895   0.59635   1.000
    O525    O    0.73847   0.67898   0.59637   1.000
    O526    O    0.73845   0.17901   0.59642   1.000
    O527    O    0.23845   0.67903   0.59641   1.000
    O528    O    0.44887   0.34743   0.64055   1.000
    O529    O    0.94899   0.84743   0.64056   1.000
    O530    O    0.94915   0.34742   0.64056   1.000
    O531    O    0.44920   0.84743   0.64057   1.000
    O532    O    0.20000   0.16217   0.64750   1.000
    O533    O    0.70001   0.66217   0.64751   1.000
    O534    O    0.19999   0.66220   0.64754   1.000
    O535    O    0.69999   0.16220   0.64751   1.000
    O536    O    0.49021   0.36589   0.69418   1.000
    O537    O    0.40812   0.36365   0.69499   1.000
    O538    O    0.99029   0.86590   0.69420   1.000
    O539    O    0.90820   0.86365   0.69499   1.000
    O540    O    0.99040   0.36590   0.69422   1.000
    O541    O    0.90831   0.36364   0.69498   1.000
    O542    O    0.49044   0.86590   0.69419   1.000
    O543    O    0.40835   0.86364   0.69498   1.000
    O544    O    0.56279   0.36874   0.69701   1.000
    O545    O    0.06286   0.86875   0.69705   1.000
    O546    O    0.06296   0.36875   0.69708   1.000
    O547    O    0.56301   0.86876   0.69706   1.000
    O548    O    0.65861   0.14418   0.70127   1.000
    O549    O    0.74070   0.14641   0.70208   1.000
    O550    O    0.15862   0.14417   0.70112   1.000
    O551    O    0.24071   0.14639   0.70208   1.000
    O552    O    0.65864   0.64417   0.70128   1.000
    O553    O    0.74073   0.64639   0.70209   1.000
    O554    O    0.15860   0.64418   0.70131   1.000
    O555    O    0.24069   0.64641   0.70209   1.000
    O556    O    0.33582   0.86244   0.69918   1.000
    O557    O    0.83579   0.36245   0.69918   1.000
    O558    O    0.83569   0.86246   0.69921   1.000
    O559    O    0.33561   0.36247   0.69923   1.000
    O560    O    0.08604   0.14131   0.70395   1.000
    O561    O    0.58606   0.64133   0.70410   1.000
    O562    O    0.08602   0.64133   0.70412   1.000
    O563    O    0.58603   0.14132   0.70414   1.000
    O564    O    0.31323   0.14755   0.70634   1.000
    O565    O    0.81324   0.64755   0.70635   1.000
    O566    O    0.81322   0.14756   0.70637   1.000
    O567    O    0.31321   0.64756   0.70635   1.000
    O568    O    0.53151   0.38230   0.74560   1.000
    O569    O    0.53168   0.88231   0.74560   1.000
    O570    O    0.03155   0.88230   0.74562   1.000
    O571    O    0.03164   0.38231   0.74566   1.000
    O572    O    0.36749   0.87778   0.74718   1.000
    O573    O    0.86747   0.37779   0.74719   1.000
    O574    O    0.86738   0.87780   0.74721   1.000
    O575    O    0.36732   0.37781   0.74721   1.000
    O576    O    0.11729   0.12781   0.75255   1.000
    O577    O    0.61730   0.62783   0.75271   1.000
    O578    O    0.11726   0.62783   0.75273   1.000
    O579    O    0.61728   0.12782   0.75274   1.000
    O580    O    0.28144   0.63227   0.75433   1.000
    O581    O    0.28147   0.13226   0.75432   1.000
    O582    O    0.78148   0.63226   0.75433   1.000
    O583    O    0.78147   0.13226   0.75435   1.000
    O584    O    0.56334   0.89762   0.79364   1.000
    O585    O    0.49082   0.89643   0.79785   1.000
    O586    O    0.56323   0.39760   0.79359   1.000
    O587    O    0.49071   0.39643   0.79784   1.000
    O588    O    0.06325   0.89761   0.79361   1.000
    O589    O    0.99074   0.89643   0.79780   1.000
    O590    O    0.06331   0.39761   0.79366   1.000
    O591    O    0.99080   0.39643   0.79788   1.000
    O592    O    0.33615   0.89127   0.79577   1.000
    O593    O    0.40873   0.89416   0.79864   1.000
    O594    O    0.83614   0.39128   0.79578   1.000
    O595    O    0.90871   0.39417   0.79864   1.000
    O596    O    0.83608   0.89128   0.79081   1.000
    O597    O    0.90866   0.89417   0.79861   1.000
    O598    O    0.33604   0.39130   0.79581   1.000
    O599    O    0.40862   0.39418   0.79864   1.000
    O600    O    0.08554   0.11249   0.80068   1.000
    O601    O    0.15804   0.11365   0.80493   1.000
    O602    O    0.58554   0.61251   0.80069   1.000
    O603    O    0.65805   0.61367   0.80491   1.000
    O604    O    0.08549   0.61250   0.80071   1.000
    O605    O    0.15800   0.61366   0.80496   1.000
    O606    O    0.58554   0.11249   0.80072   1.000
    O607    O    0.65804   0.11365   0.80496   1.000
    O608    O    0.31272   0.11870   0.80291   1.000
    O609    O    0.24014   0.11587   0.80574   1.000
    O610    O    0.81273   0.61870   0.80293   1.000
    O611    O    0.74015   0.61588   0.80572   1.000
    O612    O    0.81272   0.11869   0.80295   1.000
    O613    O    0.74014   0.11587   0.80577   1.000
    O614    O    0.31268   0.61870   0.80297   1.000
    O615    O    0.24010   0.61588   0.80578   1.000
    O616    O    0.94999   0.91219   0.85238   1.000
    O617    O    0.44997   0.41220   0.85241   1.000
    O618    O    0.95002   0.41219   0.85243   1.000
    O619    O    0.45003   0.91219   0.85243   1.000
    O620    O    0.69876   0.59743   0.85934   1.000
    O621    O    0.19876   0.09741   0.85936   1.000
    O622    O    0.69876   0.09741   0.85940   1.000
    O623    O    0.19870   0.59742   0.85940   1.000
    O624    O    0.48841   0.42899   0.90355   1.000
    O625    O    0.41214   0.42884   0.90389   1.000
    O626    O    0.98840   0.92898   0.90357   1.000
    O627    O    0.91214   0.92884   0.90390   1.000
    O628    O    0.48842   0.92898   0.90359   1.000
    O629    O    0.41216   0.92883   0.90390   1.000
    O630    O    0.98842   0.42897   0.90359   1.000
    O631    O    0.91216   0.42883   0.90390   1.000
    O632    O    0.16032   0.08004   0.91038   1.000
    O633    O    0.23656   0.08001   0.91062   1.000
    O634    O    0.66032   0.58005   0.91040   1.000
    O635    O    0.73657   0.58002   0.91063   1.000
    O636    O    0.66032   0.08004   0.91042   1.000
    O637    O    0.73657   0.08001   0.91066   1.000
    O638    O    0.16025   0.58005   0.91041   1.000
    O639    O    0.23650   0.58002   0.91066   1.000
    O640    O    0.84919   0.46681   0.95916   1.000
    O641    O    0.34919   0.96682   0.95915   1.000
    O642    O    0.84919   0.96682   0.95917   1.000
    O643    O    0.34918   0.46682   0.95917   1.000
    O644    O    0.29944   0.03741   0.96248   1.000
    O645    O    0.79945   0.53741   0.96249   1.000
    O646    O    0.79945   0.03741   0.96251   1.000
    O647    O    0.29941   0.53741   0.96251   1.000
    O648    O    0.19909   0.41937   0.99506   1.000
    O649    O    0.69911   0.91938   0.99504   1.000
    O650    O    0.69910   0.41937   0.99511   1.000
    O651    O    0.19910   0.91938   0.99510   1.000
    O652    O    0.76174   0.97305   0.99836   1.000
    O653    O    0.26173   0.97305   0.99834   1.000
    O654    O    0.76173   0.47304   0.99838   1.000
    O655    O    0.26172   0.47305   0.99839   1.000
    O656    O    0.26191   0.27699   0.49839   1.000
    O657    O    0.26196   0.77703   0.49844   1.000
    O658    O    0.76194   0.27701   0.49845   1.000
    O659    O    0.76196   0.77700   0.49840   1.000
    O660    O    0.38686   0.22310   0.50130   1.000
    O661    O    0.38691   0.72314   0.50134   1.000
    O662    O    0.88688   0.22312   0.50134   1.000
    O663    O    0.88690   0.72312   0.50128   1.000
    O664    O    0.13672   0.47309   0.99869   1.000
    O665    O    0.13674   0.97310   0.99862   1.000
    O666    O    0.63673   0.47310   0.99866   1.000
    O667    O    0.63674   0.97309   0.99864   1.000
    O668    O    0.51180   0.02697   0.00159   1.000
    O669    O    0.51179   0.52698   0.00157   1.000
    O670    O    0.01181   0.02698   0.00157   1.000
    O671    O    0.01179   0.52697   0.00159   1.000
loop_
    _geom_bond_atom_site_label_1
    _geom_bond_atom_site_label_2
    _geom_bond_distance
    _geom_bond_site_symmetry_2
    _ccdc_geom_bond_type
    C92    O304      0.48545      .   S
    C300   O304      0.48545      .   S
    C93    O305      0.48540      .   S
    C301   O305      0.48540      .   S
    C94    O306      0.48548      .   S
    C302   O306      0.48548      .   S
    C95    O307      0.48548      .   S
    C303   O307      0.48548      .   S
    C12    O308      1.05848  1_545   S
    C257   O308      1.05848      .   S
    C12    O309      1.05827      .   S
    C268   O309      1.05827      .   S
    C12    O310      1.06045  1_544   S
    C285   O310      1.06045      .   S
    C12    O311      1.06031  1_554   S
    C232   O311      1.06031      .   S
    C15    O312      1.05848      .   S
    C258   O312      1.05848      .   S
    C15    O313      1.05612      .   S
    C271   O313      1.05612      .   S
    C15    O314      1.06065  1_554   S
    C286   O314      1.06065      .   S
    C15    O315      1.06037  1_554   S
    C235   O315      1.06037      .   S
    C14    O316      1.05843  1_545   S
    C259   O316      1.05843      .   S
    C14    O317      1.05824      .   S
    C270   O317      1.05824      .   S
    C14    O318      1.06047  1_544   S
    C287   O318      1.06047      .   S
    C14    O319      1.06041  1_554   S
    C234   O319      1.06041      .   S
    C13    O320      1.05846      .   S
    C256   O320      1.05846      .   S
    C13    O321      1.05826      .   S
    C269   O321      1.05826      .   S
    C13    O322      1.06060  1_554   S
    C284   O322      1.06060      .   S
    C13    O323      1.06063  1_554   S
    C233   O323      1.06063      .   S
    C302   O324      1.04547      .   S
    C11    O324      1.04547  1_566   S
    C301   O325      1.04555      .   S
    C8     O325      1.04555  1_556   S
    C300   O326      1.04547      .   S
    C9     O326      1.04547  1_566   S
    C303   O327      1.04553      .   S
    C10    O327      1.04553  1_556   S
    C258   O328      0.63790      .   S
    C156   O328      0.63790      .   S
    C257   O329      0.63777  1_455   S
    C159   O329      0.63777      .   S
    C259   O330      0.63785      .   S
    C157   O330      0.63785      .   S
    C256   O331      0.63774  1_455   S
    C158   O331      0.63774      .   S
    C255   O332      0.63761      .   S
    C159   O332      0.63761      .   S
    C255   O333      1.06086      .   S
    C11    O333      1.06086  1_556   S
    C254   O334      0.63759      .   S
    C158   O334      0.63759      .   S
    C254   O335      1.06088      .   S
    C10    O335      1.06088  1_556   S
    C253   O336      0.63759      .   S
    C157   O336      0.63759      .   S
    C253   O337      1.06095      .   S
    C9     O337      1.06095  1_556   S
    C252   O338      0.63759      .   S
    C156   O338      0.63759      .   S
    C252   O339      1.06091      .   S
    C8     O339      1.06091  1_556   S
    C271   O340      0.63912      .   S
    C163   O340      0.63912      .   S
    C268   O341      0.63783      .   S
    C160   O341      0.63783      .   S
    C270   O342      0.63784      .   S
    C162   O342      0.63784      .   S
    C269   O343      0.63780      .   S
    C161   O343      0.63780      .   S
    C264   O344      0.63771      .   S
    C160   O344      0.63771      .   S
    C264   O345      1.06022      .   S
    C9     O345      1.06022  1_566   S
    C267   O346      0.63745      .   S
    C163   O346      0.63745      .   S
    C267   O347      1.06070      .   S
    C10    O347      1.06070  1_556   S
    C265   O348      0.63741      .   S
    C161   O348      0.63741      .   S
    C265   O349      1.06078      .   S
    C8     O349      1.06078  1_556   S
    C266   O350      0.63742      .   S
    C162   O350      0.63742      .   S
    C266   O351      1.06077      .   S
    C11    O351      1.06077  1_566   S
    C156   O352      0.74705      .   S
    C144   O352      0.74705      .   S
    C157   O353      0.74706      .   S
    C145   O353      0.74706      .   S
    C158   O354      0.74706      .   S
    C146   O354      0.74706      .   S
    C159   O355      0.74707      .   S
    C147   O355      0.74707      .   S
    C160   O356      0.74717      .   S
    C164   O356      0.74717      .   S
    C163   O357      0.74718      .   S
    C167   O357      0.74718      .   S
    C161   O358      0.74718      .   S
    C165   O358      0.74718      .   S
    C162   O359      0.74439      .   S
    C166   O359      0.74439      .   S
    C144   O360      0.70162      .   S
    C150   O360      0.70162      .   S
    C144   O361      0.70189      .   S
    C140   O361      0.70189      .   S
    C147   O362      0.70184      .   S
    C149   O362      0.70184  1_455   S
    C147   O363      0.70193      .   S
    C143   O363      0.70193      .   S
    C146   O364      0.70145      .   S
    C148   O364      0.70145  1_455   S
    C146   O365      0.70191      .   S
    C142   O365      0.70191      .   S
    C145   O366      0.70197      .   S
    C151   O366      0.70197      .   S
    C145   O367      0.70190      .   S
    C141   O367      0.70190      .   S
    C46    O368      0.54413      .   S
    C150   O368      0.54413      .   S
    C47    O369      0.54449      .   S
    C151   O369      0.54449      .   S
    C45    O370      0.54451      .   S
    C149   O370      0.54451      .   S
    C44    O371      0.54404      .   S
    C148   O371      0.54404      .   S
    C166   O372      0.70324      .   S
    C170   O372      0.70324      .   S
    C166   O373      0.70339      .   S
    C186   O373      0.70339      .   S
    C164   O374      0.70187      .   S
    C168   O374      0.70187      .   S
    C164   O375      0.70192      .   S
    C184   O375      0.70192      .   S
    C167   O376      0.70190      .   S
    C171   O376      0.70190      .   S
    C167   O377      0.70193      .   S
    C187   O377      0.70193      .   S
    C165   O378      0.70189      .   S
    C169   O378      0.70189      .   S
    C165   O379      0.70197      .   S
    C185   O379      0.70197      .   S
    C41    O380      0.54486      .   S
    C141   O380      0.54486      .   S
    C43    O381      0.54451      .   S
    C143   O381      0.54451      .   S
    C42    O382      0.54448      .   S
    C142   O382      0.54448      .   S
    C40    O383      0.54444      .   S
    C140   O383      0.54444      .   S
    C56    O384      0.54447      .   S
    C168   O384      0.54447      .   S
    C59    O385      0.54451      .   S
    C171   O385      0.54451      .   S
    C58    O386      0.54447      .   S
    C170   O386      0.54447      .   S
    C57    O387      0.54449      .   S
    C169   O387      0.54449      .   S
    C71    O388      0.54447      .   S
    C187   O388      0.54447      .   S
    C69    O389      0.54450      .   S
    C185   O389      0.54450      .   S
    C70    O390      0.54460      .   S
    C186   O390      0.54460      .   S
    C68    O391      0.54445      .   S
    C184   O391      0.54445      .   S
    C148   O392      0.68768      .   S
    C152   O392      0.68768      .   S
    C150   O393      0.69587      .   S
    C154   O393      0.69587      .   S
    C149   O394      0.69520      .   S
    C153   O394      0.69520      .   S
    C151   O395      0.68684      .   S
    C155   O395      0.68684      .   S
    C140   O396      0.69524      .   S
    C136   O396      0.69524      .   S
    C143   O397      0.69514      .   S
    C139   O397      0.69514      .   S
    C142   O398      0.69524      .   S
    C138   O398      0.69524      .   S
    C141   O399      0.69523      .   S
    C137   O399      0.69523      .   S
    C168   O400      0.69520      .   S
    C172   O400      0.69520      .   S
    C171   O401      0.69520      .   S
    C175   O401      0.69520      .   S
    C170   O402      0.69521      .   S
    C174   O402      0.69521      .   S
    C169   O403      0.69522      .   S
    C173   O403      0.69522      .   S
    C187   O404      0.69487      .   S
    C183   O404      0.69487      .   S
    C184   O405      0.69525      .   S
    C180   O405      0.69525      .   S
    C185   O406      0.69517      .   S
    C181   O406      0.69517      .   S
    C186   O407      0.69517      .   S
    C182   O407      0.69517      .   S
    C155   O408      0.54875      .   S
    C51    O408      0.54875      .   S
    C155   O409      0.70634      .   S
    C133   O409      0.70634      .   S
    C152   O410      0.54879      .   S
    C48    O410      0.54879      .   S
    C152   O411      0.70580  1_455   S
    C134   O411      0.70580      .   S
    C154   O412      0.54451      .   S
    C50    O412      0.54451      .   S
    C154   O413      0.70199      .   S
    C132   O413      0.70199      .   S
    C153   O414      0.54448      .   S
    C49    O414      0.54448      .   S
    C153   O415      0.70186  1_455   S
    C135   O415      0.70186      .   S
    C139   O416      0.54446      .   S
    C39    O416      0.54446      .   S
    C139   O417      0.70188      .   S
    C135   O417      0.70188      .   S
    C136   O418      0.54447      .   S
    C36    O418      0.54447      .   S
    C136   O419      0.70189      .   S
    C132   O419      0.70189      .   S
    C138   O420      0.54445      .   S
    C38    O420      0.54445      .   S
    C138   O421      0.70149      .   S
    C134   O421      0.70149      .   S
    C137   O422      0.54449      .   S
    C37    O422      0.54449      .   S
    C137   O423      0.70190      .   S
    C133   O423      0.70190      .   S
    C172   O424      0.54437      .   S
    C60    O424      0.54437      .   S
    C172   O425      0.70191      .   S
    C176   O425      0.70191      .   S
    C175   O426      0.54411      .   S
    C63    O426      0.54411      .   S
    C175   O427      0.70193      .   S
    C179   O427      0.70193      .   S
    C174   O428      0.54311      .   S
    C62    O428      0.54311      .   S
    C174   O429      0.70193      .   S
    C178   O429      0.70193      .   S
    C173   O430      0.54448      .   S
    C61    O430      0.54448      .   S
    C173   O431      0.70198      .   S
    C177   O431      0.70198      .   S
    C183   O432      0.54470      .   S
    C67    O432      0.54470      .   S
    C183   O433      0.70210      .   S
    C179   O433      0.70210      .   S
    C180   O434      0.54448      .   S
    C64    O434      0.54448      .   S
    C180   O435      0.70191      .   S
    C176   O435      0.70191      .   S
    C181   O436      0.54452      .   S
    C65    O436      0.54452      .   S
    C181   O437      0.70194      .   S
    C177   O437      0.70194      .   S
    C182   O438      0.54453      .   S
    C66    O438      0.54453      .   S
    C182   O439      0.70193      .   S
    C178   O439      0.70193      .   S
    C134   O440      0.74744      .   S
    C130   O440      0.74744      .   S
    C132   O441      0.74681      .   S
    C128   O441      0.74681      .   S
    C135   O442      0.74718      .   S
    C131   O442      0.74718      .   S
    C133   O443      0.74716      .   S
    C129   O443      0.74716      .   S
    C176   O444      0.74708      .   S
    C188   O444      0.74708      .   S
    C179   O445      0.74700      .   S
    C191   O445      0.74700      .   S
    C177   O446      0.74707      .   S
    C189   O446      0.74707      .   S
    C178   O447      0.74710      .   S
    C190   O447      0.74710      .   S
    C130   O448      0.63753      .   S
    C244   O448      0.63753  1_455   S
    C130   O449      0.63804      .   S
    C250   O449      0.63804      .   S
    C128   O450      0.63759      .   S
    C246   O450      0.63759      .   S
    C128   O451      0.63780      .   S
    C248   O451      0.63780      .   S
    C131   O452      0.63733      .   S
    C245   O452      0.63733  1_455   S
    C131   O453      0.63779      .   S
    C251   O453      0.63779      .   S
    C129   O454      0.63741      .   S
    C247   O454      0.63741      .   S
    C129   O455      0.63781      .   S
    C249   O455      0.63781      .   S
    C188   O456      0.63757      .   S
    C272   O456      0.63757      .   S
    C188   O457      0.63784      .   S
    C276   O457      0.63784      .   S
    C191   O458      0.63759      .   S
    C275   O458      0.63759      .   S
    C191   O459      0.63788      .   S
    C279   O459      0.63788      .   S
    C189   O460      0.63757      .   S
    C273   O460      0.63757      .   S
    C189   O461      0.63788      .   S
    C277   O461      0.63788      .   S
    C190   O462      0.63727      .   S
    C274   O462      0.63727      .   S
    C190   O463      0.63790      .   S
    C278   O463      0.63790      .   S
    C246   O464      1.06104      .   S
    C6     O464      1.06104      .   S
    C245   O465      1.06101      .   S
    C5     O465      1.06101      .   S
    C244   O466      1.06101      .   S
    C4     O466      1.06101      .   S
    C247   O467      1.06105      .   S
    C7     O467      1.06105      .   S
    C248   O468      1.05830      .   S
    C0     O468      1.05830      .   S
    C250   O469      1.05812      .   S
    C2     O469      1.05812      .   S
    C251   O470      1.05814      .   S
    C3     O470      1.05814      .   S
    C249   O471      1.05812      .   S
    C1     O471      1.05812      .   S
    C274   O472      1.06089      .   S
    C6     O472      1.06089      .   S
    C272   O473      1.06022      .   S
    C4     O473      1.06022      .   S
    C275   O474      1.06016      .   S
    C7     O474      1.06016      .   S
    C273   O475      1.06030      .   S
    C5     O475      1.06030      .   S
    C279   O476      1.05882      .   S
    C3     O476      1.05882      .   S
    C276   O477      1.05869      .   S
    C0     O477      1.05869      .   S
    C277   O478      1.05894      .   S
    C1     O478      1.05894      .   S
    C278   O479      1.05885      .   S
    C2     O479      1.05885      .   S
    C33    O480      0.48619      .   S
    C241   O480      0.48619      .   S
    C34    O481      0.48620      .   S
    C242   O481      0.48620      .   S
    C35    O482      0.48618      .   S
    C243   O482      0.48618      .   S
    C32    O483      0.48619      .   S
    C240   O483      0.48619      .   S
    C243   O484      1.04533      .   S
    C7     O484      1.04533      .   S
    C240   O485      1.04533      .   S
    C4     O485      1.04533      .   S
    C241   O486      1.04546      .   S
    C5     O486      1.04546      .   S
    C242   O487      1.04547      .   S
    C6     O487      1.04547      .   S
    C0     O488      1.05989      .   S
    C292   O488      1.05989      .   S
    C0     O489      1.06054      .   S
    C224   O489      1.06054      .   S
    C3     O490      1.05991      .   S
    C295   O490      1.05991      .   S
    C3     O491      1.06046      .   S
    C227   O491      1.06046      .   S
    C2     O492      1.05994      .   S
    C294   O492      1.05994      .   S
    C2     O493      1.06052      .   S
    C226   O493      1.06052      .   S
    C1     O494      1.05980      .   S
    C293   O494      1.05980      .   S
    C1     O495      1.06049      .   S
    C225   O495      1.06049      .   S
    C4     O496      1.04538      .   S
    C262   O496      1.04538  1_655   S
    C4     O497      1.05926      .   S
    C296   O497      1.05926      .   S
    C4     O498      1.05868      .   S
    C228   O498      1.05868      .   S
    C7     O499      1.04549      .   S
    C261   O499      1.04549      .   S
    C7     O500      1.05928      .   S
    C299   O500      1.05928      .   S
    C7     O501      1.05867      .   S
    C231   O501      1.05867      .   S
    C5     O502      1.04539      .   S
    C263   O502      1.04539  1_655   S
    C5     O503      1.05921      .   S
    C297   O503      1.05921      .   S
    C5     O504      1.05831      .   S
    C229   O504      1.05831      .   S
    C6     O505      1.04549      .   S
    C260   O505      1.04549      .   S
    C6     O506      1.05920      .   S
    C298   O506      1.05920      .   S
    C6     O507      1.05859      .   S
    C230   O507      1.05859      .   S
    C263   O508      0.48625      .   S
    C55    O508      0.48625      .   S
    C260   O509      0.48619      .   S
    C52    O509      0.48619      .   S
    C261   O510      0.48619      .   S
    C53    O510      0.48619      .   S
    C262   O511      0.48618      .   S
    C54    O511      0.48618      .   S
    C298   O512      0.63786      .   S
    C220   O512      0.63786      .   S
    C297   O513      0.63779  1_455   S
    C223   O513      0.63779      .   S
    C296   O514      0.63778  1_455   S
    C222   O514      0.63778      .   S
    C299   O515      0.63791      .   S
    C221   O515      0.63791      .   S
    C293   O516      0.63757      .   S
    C221   O516      0.63757      .   S
    C294   O517      0.63753      .   S
    C222   O517      0.63753      .   S
    C292   O518      0.63773      .   S
    C220   O518      0.63773      .   S
    C295   O519      0.63760      .   S
    C223   O519      0.63760      .   S
    C228   O520      0.63781      .   S
    C96    O520      0.63781      .   S
    C231   O521      0.63775      .   S
    C99    O521      0.63775      .   S
    C229   O522      0.63788      .   S
    C97    O522      0.63788      .   S
    C230   O523      0.63782      .   S
    C98    O523      0.63782      .   S
    C224   O524      0.63747      .   S
    C96    O524      0.63747      .   S
    C227   O525      0.63746      .   S
    C99    O525      0.63746      .   S
    C226   O526      0.63745      .   S
    C98    O526      0.63745      .   S
    C225   O527      0.63741      .   S
    C97    O527      0.63741      .   S
    C220   O528      0.74700      .   S
    C208   O528      0.74700      .   S
    C223   O529      0.74701      .   S
    C211   O529      0.74701      .   S
    C222   O530      0.74709      .   S
    C210   O530      0.74709      .   S
    C221   O531      0.74700      .   S
    C209   O531      0.74700      .   S
    C96    O532      0.74719      .   S
    C100   O532      0.74719      .   S
    C99    O533      0.74724      .   S
    C103   O533      0.74724      .   S
    C97    O534      0.74730      .   S
    C101   O534      0.74730      .   S
    C98    O535      0.74636      .   S
    C102   O535      0.74636      .   S
    C208   O536      0.70193      .   S
    C214   O536      0.70193      .   S
    C208   O537      0.70198      .   S
    C204   O537      0.70198      .   S
    C211   O538      0.70180      .   S
    C213   O538      0.70180  1_455   S
    C211   O539      0.70199      .   S
    C207   O539      0.70199      .   S
    C210   O540      0.70177      .   S
    C212   O540      0.70177  1_455   S
    C210   O541      0.70198      .   S
    C206   O541      0.70198      .   S
    C209   O542      0.70155      .   S
    C215   O542      0.70155      .   S
    C209   O543      0.70198      .   S
    C205   O543      0.70198      .   S
    C86    O544      0.54448      .   S
    C214   O544      0.54448      .   S
    C85    O545      0.54449      .   S
    C213   O545      0.54449      .   S
    C84    O546      0.54452      .   S
    C212   O546      0.54452      .   S
    C87    O547      0.54414      .   S
    C215   O547      0.54414      .   S
    C102   O548      0.70228      .   S
    C106   O548      0.70228      .   S
    C102   O549      0.70238      .   S
    C122   O549      0.70238      .   S
    C100   O550      0.70054      .   S
    C104   O550      0.70054      .   S
    C100   O551      0.70200      .   S
    C120   O551      0.70200      .   S
    C103   O552      0.70186      .   S
    C107   O552      0.70186      .   S
    C103   O553      0.70198      .   S
    C123   O553      0.70198      .   S
    C101   O554      0.70192      .   S
    C105   O554      0.70192      .   S
    C101   O555      0.70168      .   S
    C121   O555      0.70168      .   S
    C81    O556      0.54446      .   S
    C205   O556      0.54446      .   S
    C82    O557      0.54448      .   S
    C206   O557      0.54448      .   S
    C83    O558      0.54450      .   S
    C207   O558      0.54450      .   S
    C80    O559      0.54451      .   S
    C204   O559      0.54451      .   S
    C16    O560      0.54303      .   S
    C104   O560      0.54303      .   S
    C19    O561      0.54445      .   S
    C107   O561      0.54445      .   S
    C17    O562      0.54452      .   S
    C105   O562      0.54452      .   S
    C18    O563      0.54447      .   S
    C106   O563      0.54447      .   S
    C28    O564      0.54450      .   S
    C120   O564      0.54450      .   S
    C31    O565      0.54450      .   S
    C123   O565      0.54450      .   S
    C30    O566      0.54448      .   S
    C122   O566      0.54448      .   S
    C29    O567      0.54420      .   S
    C121   O567      0.54420      .   S
    C214   O568      0.69517      .   S
    C218   O568      0.69517      .   S
    C215   O569      0.69516      .   S
    C219   O569      0.69516      .   S
    C213   O570      0.69488      .   S
    C217   O570      0.69488      .   S
    C212   O571      0.69516      .   S
    C216   O571      0.69516      .   S
    C205   O572      0.69521      .   S
    C201   O572      0.69521      .   S
    C206   O573      0.69521      .   S
    C202   O573      0.69521      .   S
    C207   O574      0.69521      .   S
    C203   O574      0.69521      .   S
    C204   O575      0.69513      .   S
    C200   O575      0.69513      .   S
    C104   O576      0.69795      .   S
    C108   O576      0.69795      .   S
    C107   O577      0.69522      .   S
    C111   O577      0.69522      .   S
    C105   O578      0.69515      .   S
    C109   O578      0.69515      .   S
    C106   O579      0.69516      .   S
    C110   O579      0.69516      .   S
    C121   O580      0.69586      .   S
    C117   O580      0.69586      .   S
    C120   O581      0.69518      .   S
    C116   O581      0.69518      .   S
    C123   O582      0.69518      .   S
    C119   O582      0.69518      .   S
    C122   O583      0.69520      .   S
    C118   O583      0.69520      .   S
    C219   O584      0.54484      .   S
    C91    O584      0.54484      .   S
    C219   O585      0.70232      .   S
    C197   O585      0.70232      .   S
    C218   O586      0.54449      .   S
    C90    O586      0.54449      .   S
    C218   O587      0.70200      .   S
    C196   O587      0.70200      .   S
    C217   O588      0.54467      .   S
    C89    O588      0.54467      .   S
    C217   O589      0.70163  1_455   S
    C199   O589      0.70163      .   S
    C216   O590      0.54449      .   S
    C88    O590      0.54449      .   S
    C216   O591      0.70189  1_455   S
    C198   O591      0.70189      .   S
    C201   O592      0.54451      .   S
    C77    O592      0.54451      .   S
    C201   O593      0.70190      .   S
    C197   O593      0.70190      .   S
    C202   O594      0.54449      .   S
    C78    O594      0.54449      .   S
    C202   O595      0.70189      .   S
    C198   O595      0.70189      .   S
    C203   O596      0.50208      .   S
    C79    O596      0.50208      .   S
    C203   O597      0.70148      .   S
    C199   O597      0.70148      .   S
    C200   O598      0.54443      .   S
    C76    O598      0.54443      .   S
    C200   O599      0.70190      .   S
    C196   O599      0.70190      .   S
    C108   O600      0.54449      .   S
    C20    O600      0.54449      .   S
    C108   O601      0.70193      .   S
    C112   O601      0.70193      .   S
    C111   O602      0.54449      .   S
    C23    O602      0.54449      .   S
    C111   O603      0.70163      .   S
    C115   O603      0.70163      .   S
    C109   O604      0.54447      .   S
    C21    O604      0.54447      .   S
    C109   O605      0.70194      .   S
    C113   O605      0.70194      .   S
    C110   O606      0.54448      .   S
    C22    O606      0.54448      .   S
    C110   O607      0.70195      .   S
    C114   O607      0.70195      .   S
    C116   O608      0.54449      .   S
    C24    O608      0.54449      .   S
    C116   O609      0.70192      .   S
    C112   O609      0.70192      .   S
    C119   O610      0.54452      .   S
    C27    O610      0.54452      .   S
    C119   O611      0.70164      .   S
    C115   O611      0.70164      .   S
    C118   O612      0.54454      .   S
    C26    O612      0.54454      .   S
    C118   O613      0.70195      .   S
    C114   O613      0.70195      .   S
    C117   O614      0.54449      .   S
    C25    O614      0.54449      .   S
    C117   O615      0.70192      .   S
    C113   O615      0.70192      .   S
    C199   O616      0.74795      .   S
    C195   O616      0.74795      .   S
    C196   O617      0.74719      .   S
    C192   O617      0.74719      .   S
    C198   O618      0.74717      .   S
    C194   O618      0.74717      .   S
    C197   O619      0.74719      .   S
    C193   O619      0.74719      .   S
    C115   O620      0.74766      .   S
    C127   O620      0.74766      .   S
    C112   O621      0.74706      .   S
    C124   O621      0.74706      .   S
    C114   O622      0.74706      .   S
    C126   O622      0.74706      .   S
    C113   O623      0.74707      .   S
    C125   O623      0.74707      .   S
    C192   O624      0.63739      .   S
    C286   O624      0.63739      .   S
    C192   O625      0.63778      .   S
    C288   O625      0.63778      .   S
    C195   O626      0.63731      .   S
    C285   O626      0.63731  1_455   S
    C195   O627      0.63781      .   S
    C291   O627      0.63781      .   S
    C193   O628      0.63742      .   S
    C287   O628      0.63742      .   S
    C193   O629      0.63780      .   S
    C289   O629      0.63780      .   S
    C194   O630      0.63731      .   S
    C284   O630      0.63731  1_455   S
    C194   O631      0.63778      .   S
    C290   O631      0.63778      .   S
    C124   O632      0.63763      .   S
    C232   O632      0.63763      .   S
    C124   O633      0.63789      .   S
    C236   O633      0.63789      .   S
    C127   O634      0.63762      .   S
    C235   O634      0.63762      .   S
    C127   O635      0.63791      .   S
    C239   O635      0.63791      .   S
    C126   O636      0.63759      .   S
    C234   O636      0.63759      .   S
    C126   O637      0.63788      .   S
    C238   O637      0.63788      .   S
    C125   O638      0.63748      .   S
    C233   O638      0.63748      .   S
    C125   O639      0.63789      .   S
    C237   O639      0.63789      .   S
    C290   O640      1.05855      .   S
    C10    O640      1.05855      .   S
    C289   O641      1.05847      .   S
    C9     O641      1.05847      .   S
    C291   O642      1.05854      .   S
    C11    O642      1.05854      .   S
    C288   O643      1.05851      .   S
    C8     O643      1.05851      .   S
    C236   O644      1.05886      .   S
    C9     O644      1.05886  1_565   S
    C239   O645      1.05893      .   S
    C10    O645      1.05893      .   S
    C238   O646      1.05891      .   S
    C11    O646      1.05891  1_565   S
    C237   O647      1.05894      .   S
    C8     O647      1.05894      .   S
    C72    O648      0.48619      .   S
    C280   O648      0.48619      .   S
    C75    O649      0.48613      .   S
    C283   O649      0.48613      .   S
    C74    O650      0.48621      .   S
    C282   O650      0.48621      .   S
    C73    O651      0.48615      .   S
    C281   O651      0.48615      .   S
    C283   O652      1.04546      .   S
    C11    O652      1.04546      .   S
    C281   O653      1.04543      .   S
    C9     O653      1.04543      .   S
    C282   O654      1.04543      .   S
    C10    O654      1.04543      .   S
    C280   O655      1.04544      .   S
    C8     O655      1.04544      .   S
    C240   O656      1.04575      .   S
    C0     O656      1.04575      .   S
    C241   O657      1.04590      .   S
    C1     O657      1.04590      .   S
    C242   O658      1.04590      .   S
    C2     O658      1.04590      .   S
    C243   O659      1.04577      .   S
    C3     O659      1.04577      .   S
    C260   O660      1.04574      .   S
    C0     O660      1.04574      .   S
    C261   O661      1.04568      .   S
    C1     O661      1.04568      .   S
    C262   O662      1.04568      .   S
    C2     O662      1.04568      .   S
    C263   O663      1.04570      .   S
    C3     O663      1.04570      .   S
    C280   O664      1.04573      .   S
    C13    O664      1.04573  1_554   S
    C281   O665      1.04565      .   S
    C12    O665      1.04565  1_544   S
    C282   O666      1.04571      .   S
    C15    O666      1.04571  1_554   S
    C283   O667      1.04568      .   S
    C14    O667      1.04568  1_544   S
    C300   O668      1.04571      .   S
    C14    O668      1.04571      .   S
    C301   O669      1.04572      .   S
    C15    O669      1.04572      .   S
    C302   O670      1.04562  1_655   S
    C12    O670      1.04562      .   S
    C303   O671      1.04559  1_655   S
    C13    O671      1.04559      .   S
