# CIF file generated by openbabel 2.4.90, see http://openbabel.sf.net
data_I
_chemical_name_common ''
_cell_length_a 8.75
_cell_length_b 12.597
_cell_length_c 12.598
_cell_angle_alpha 114.647
_cell_angle_beta 103.32
_cell_angle_gamma 103.37
_space_group_name_H-M_alt 'P 1'
_space_group_name_Hall 'P 1'
loop_
    _symmetry_equiv_pos_as_xyz
    x,y,z
loop_
    _atom_site_label
    _atom_site_type_symbol
    _atom_site_fract_x
    _atom_site_fract_y
    _atom_site_fract_z
    _atom_site_occupancy
    H0      H    0.96151   0.18476   0.90367   1.000
    H1      H    0.76474   0.13444   0.78218   1.000
    H2      H    0.96493   0.40354   0.00478   1.000
    H3      H    0.77857   0.35935   0.87891   1.000
    H4      H    0.62606   0.20513   0.93712   1.000
    H5      H    0.81215   0.27323   0.07549   1.000
    H6      H    0.77585   0.71693   0.81359   1.000
    H7      H    0.62980   0.64614   0.86490   1.000
    H8      H    0.56036   0.60075   0.59552   1.000
    H9      H    0.41854   0.51896   0.64028   1.000
    H10     H    0.42040   0.73069   0.79479   1.000
    H11     H    0.53801   0.80112   0.72610   1.000
    H12     H    0.06058   0.09807   0.28316   1.000
    H13     H    0.98506   0.21968   0.35402   1.000
    H14     H    0.96064   0.99535   0.39943   1.000
    H15     H    0.89972   0.12117   0.48086   1.000
    H16     H    0.69147   0.06500   0.26889   1.000
    H17     H    0.73927   0.92645   0.19887   1.000
    H18     H    0.03850   0.81524   0.09630   1.000
    H19     H    0.23528   0.86557   0.21779   1.000
    H20     H    0.03508   0.59646   0.99520   1.000
    H21     H    0.22144   0.64065   0.12107   1.000
    H22     H    0.37395   0.79487   0.06285   1.000
    H23     H    0.18786   0.72677   0.92449   1.000
    H24     H    0.22417   0.28307   0.18638   1.000
    H25     H    0.37021   0.35386   0.13507   1.000
    H26     H    0.43965   0.39925   0.40445   1.000
    H27     H    0.58148   0.48104   0.35969   1.000
    H28     H    0.57961   0.26932   0.20519   1.000
    H29     H    0.46200   0.19888   0.27387   1.000
    H30     H    0.93944   0.90193   0.71681   1.000
    H31     H    0.01496   0.78032   0.64595   1.000
    H32     H    0.03938   0.00465   0.60054   1.000
    H33     H    0.10029   0.87883   0.51911   1.000
    H34     H    0.30854   0.93500   0.73108   1.000
    H35     H    0.26074   0.07356   0.80110   1.000
    C36     C    0.97795   0.25442   0.77558   1.000
    C37     C    0.88376   0.21480   0.84865   1.000
    C38     C    0.84545   0.32546   0.93541   1.000
    C39     C    0.73822   0.29038   0.00533   1.000
    C40     C    0.67831   0.39467   0.06986   1.000
    C41     C    0.72231   0.51965   0.74450   1.000
    C42     C    0.66807   0.63232   0.78413   1.000
    C43     C    0.51911   0.60910   0.67387   1.000
    C44     C    0.44712   0.71398   0.70928   1.000
    C45     C    0.28301   0.67490   0.60544   1.000
    C46     C    0.20335   0.22484   0.48043   1.000
    C47     C    0.03701   0.15261   0.36779   1.000
    C48     C    0.91097   0.06528   0.39087   1.000
    C49     C    0.73477   0.99617   0.28584   1.000
    C50     C    0.60914   0.93113   0.32474   1.000
    C51     C    0.02206   0.74557   0.22438   1.000
    C52     C    0.11626   0.78520   0.15132   1.000
    C53     C    0.15456   0.67454   0.06456   1.000
    C54     C    0.26179   0.70962   0.99465   1.000
    C55     C    0.32170   0.60533   0.93011   1.000
    C56     C    0.27770   0.48035   0.25547   1.000
    C57     C    0.33194   0.36768   0.21584   1.000
    C58     C    0.48090   0.39091   0.32611   1.000
    C59     C    0.55290   0.28602   0.29069   1.000
    C60     C    0.71701   0.32510   0.39453   1.000
    C61     C    0.79667   0.77517   0.51954   1.000
    C62     C    0.96299   0.84738   0.63218   1.000
    C63     C    0.08904   0.93472   0.60910   1.000
    C64     C    0.26523   0.00383   0.71413   1.000
    C65     C    0.39088   0.06888   0.67523   1.000
    O66     O    0.89219   0.26736   0.68672   1.000
    O67     O    0.13478   0.27697   0.80851   1.000
    O68     O    0.55676   0.40889   0.00591   1.000
    O69     O    0.75151   0.47022   0.18834   1.000
    O70     O    0.62361   0.41811   0.73195   1.000
    O71     O    0.85649   0.52981   0.72163   1.000
    O72     O    0.14754   0.59661   0.59136   1.000
    O73     O    0.28042   0.71880   0.53022   1.000
    O74     O    0.20595   0.31346   0.58184   1.000
    O75     O    0.32710   0.19145   0.47033   1.000
    O76     O    0.55276   0.99509   0.40382   1.000
    O77     O    0.56130   0.81208   0.27988   1.000
    O78     O    0.10782   0.73264   0.31325   1.000
    O79     O    0.86523   0.72303   0.19146   1.000
    O80     O    0.44325   0.59111   0.99406   1.000
    O81     O    0.24850   0.52978   0.81163   1.000
    O82     O    0.37640   0.58190   0.26802   1.000
    O83     O    0.14352   0.47019   0.27834   1.000
    O84     O    0.85247   0.40339   0.40861   1.000
    O85     O    0.71960   0.28120   0.46975   1.000
    O86     O    0.79406   0.68654   0.41812   1.000
    O87     O    0.67291   0.80855   0.52964   1.000
    O88     O    0.44726   0.00491   0.59615   1.000
    O89     O    0.43871   0.18792   0.72010   1.000
loop_
    _geom_bond_atom_site_label_1
    _geom_bond_atom_site_label_2
    _geom_bond_distance
    _geom_bond_site_symmetry_2
    _ccdc_geom_bond_type
    H2     C38       1.10030  1_554   S
    C39    C40       1.51182      .   S
    C39    H5        1.09855      .   S
    C39    C38       1.53791  1_554   S
    C39    H4        1.09962  1_554   S
    O68    C40       1.27511      .   S
    H22    C54       1.09962  1_554   S
    C53    H21       1.09926      .   S
    C53    C52       1.53765      .   S
    C53    C54       1.53790  1_554   S
    C53    H20       1.10030  1_554   S
    C40    O69       1.27934      .   S
    H18    C52       1.09867      .   S
    H25    C57       1.10186      .   S
    C52    H19       1.10189      .   S
    C52    C51       1.52258      .   S
    H24    C57       1.09866      .   S
    O79    C51       1.26296  1_655   S
    H17    C49       1.09851      .   S
    H28    C59       1.09959      .   S
    C57    C56       1.52268      .   S
    C57    C58       1.53768      .   S
    C51    O78       1.29017      .   S
    C56    O82       1.29024      .   S
    C56    O83       1.26285      .   S
    H16    C49       1.10001  1_545   S
    H29    C59       1.09854      .   S
    O77    C50       1.27955      .   S
    H12    C47       1.09867      .   S
    C49    C50       1.51212      .   S
    C49    C48       1.53757  1_565   S
    C59    C58       1.53766      .   S
    C59    C60       1.51197      .   S
    C50    O76       1.27509      .   S
    C58    H27       1.09925      .   S
    C58    H26       1.10026      .   S
    H13    C47       1.10186  1_655   S
    C47    C48       1.53770  1_455   S
    C47    C46       1.52276      .   S
    C48    H14       1.10056  1_545   S
    C48    H15       1.09923      .   S
    C60    O84       1.27500      .   S
    C60    O85       1.27943      .   S
    O86    C61       1.29018      .   S
    O75    C46       1.26295      .   S
    C46    O74       1.29017      .   S
    H33    C63       1.09923      .   S
    C61    O87       1.26296      .   S
    C61    C62       1.52275      .   S
    O73    C45       1.27943      .   S
    O72    C45       1.27501      .   S
    H8     C43       1.10028      .   S
    O88    C65       1.27508      .   S
    H32    C63       1.10056  1_545   S
    C45    C44       1.51198      .   S
    C63    C62       1.53780  1_455   S
    C63    C64       1.53755  1_565   S
    C62    H31       1.10185  1_655   S
    C62    H30       1.09866      .   S
    H9     C43       1.09926      .   S
    C43    C44       1.53766      .   S
    C43    C42       1.53769      .   S
    C65    C64       1.51212      .   S
    C65    O89       1.27955      .   S
    O66    C36       1.29017      .   S
    C44    H11       1.09854      .   S
    C44    H10       1.09959      .   S
    C64    H34       1.10003  1_545   S
    C64    H35       1.09851      .   S
    O71    C41       1.26286      .   S
    O70    C41       1.29022      .   S
    C41    C42       1.52268      .   S
    C36    O67       1.26296  1_655   S
    C36    C37       1.52257      .   S
    H1     C37       1.10189      .   S
    C42    H6        1.09866      .   S
    C42    H7        1.10184      .   S
    O81    C55       1.27933      .   S
    C37    H0        1.09866      .   S
    C37    C38       1.53762      .   S
    H3     C38       1.09927      .   S
    H23    C54       1.09857      .   S
    C55    O80       1.27511      .   S
    C55    C54       1.51183      .   S
