# CIF file generated by openbabel 2.4.90, see http://openbabel.sf.net
data_I
_chemical_name_common ''
_cell_length_a 8.75
_cell_length_b 12.597
_cell_length_c 12.598
_cell_angle_alpha 114.647
_cell_angle_beta 103.32
_cell_angle_gamma 103.37
_space_group_name_H-M_alt 'P 1'
_space_group_name_Hall 'P 1'
loop_
    _symmetry_equiv_pos_as_xyz
    x,y,z
loop_
    _atom_site_label
    _atom_site_type_symbol
    _atom_site_fract_x
    _atom_site_fract_y
    _atom_site_fract_z
    _atom_site_occupancy
    Zr0     Zr   0.01289   0.42603   0.62348   1.000
    Zr1     Zr   0.58699   0.19684   0.57411   1.000
    Zr2     Zr   0.38929   0.37600   0.80319   1.000
    Zr3     Zr   0.98713   0.57397   0.37649   1.000
    Zr4     Zr   0.41302   0.80317   0.42586   1.000
    Zr5     Zr   0.61072   0.62400   0.19678   1.000
    N6      N    0.47397   0.37148   0.29813   1.000
    O7      O    0.43434   0.53200   0.32254   1.000
    O8      O    0.48377   0.48721   0.26527   1.000
    O9      O    0.56363   0.30525   0.41003   1.000
    O10     O    0.69689   0.43008   0.34534   1.000
    O11     O    0.26965   0.44678   0.31277   1.000
    N12     N    0.10141   0.92615   0.62859   1.000
    O13     O    0.25770   0.10405   0.69512   1.000
    O14     O    0.90190   0.79071   0.46802   1.000
    O15     O    0.99600   0.77820   0.51295   1.000
    N16     N    0.89861   0.07386   0.37139   1.000
    O17     O    0.00401   0.22180   0.48702   1.000
    O18     O    0.09811   0.20929   0.53195   1.000
    O19     O    0.74231   0.89595   0.30486   1.000
    N20     N    0.52604   0.62853   0.70184   1.000
    O21     O    0.56567   0.46800   0.67743   1.000
    O22     O    0.51625   0.51279   0.73471   1.000
    O23     O    0.30313   0.56992   0.65463   1.000
    O24     O    0.73037   0.55322   0.68720   1.000
    O25     O    0.43638   0.69475   0.58994   1.000
    N26     N    0.82446   0.29758   0.92710   1.000
    O27     O    0.88850   0.32214   0.79110   1.000
    O28     O    0.78203   0.26484   0.77876   1.000
    O29     O    0.04325   0.31203   0.86647   1.000
    O30     O    0.84689   0.40984   0.10476   1.000
    O31     O    0.64874   0.34501   0.91582   1.000
    N32     N    0.17555   0.70243   0.07287   1.000
    O33     O    0.11151   0.67787   0.20887   1.000
    O34     O    0.21799   0.73517   0.22122   1.000
    O35     O    0.15312   0.59017   0.89521   1.000
    O36     O    0.95676   0.68797   0.13350   1.000
    O37     O    0.35127   0.65499   0.08415   1.000
    O38     O    0.27157   0.58533   0.96295   1.000
    O39     O    0.72845   0.41468   0.03703   1.000
    O40     O    0.30820   0.03639   0.62235   1.000
    O41     O    0.70603   0.10945   0.43849   1.000
    O42     O    0.68672   0.37782   0.41473   1.000
    O43     O    0.29398   0.89055   0.56148   1.000
    O44     O    0.69182   0.96362   0.37762   1.000
    O45     O    0.31330   0.62218   0.58524   1.000
loop_
    _geom_bond_atom_site_label_1
    _geom_bond_atom_site_label_2
    _geom_bond_distance
    _geom_bond_site_symmetry_2
    _ccdc_geom_bond_type
    N6     O7        2.03931      .   S
    Zr4    O7        3.17730      .   S
    N6     O8        1.66323      .   S
    Zr5    O8        2.39662      .   S
    N6     O9        2.01810      .   S
    Zr1    O9        2.91007      .   S
    N6     O10       1.77101      .   S
    Zr3    O10       2.58994      .   S
    N6     O11       2.21822      .   S
    Zr3    O11       3.31605  1_655   S
    N12    O13       2.02067  1_565   S
    Zr2    O13       2.91177      .   S
    N12    O14       2.04134  1_455   S
    Zr5    O14       3.17908      .   S
    N12    O15       1.66364  1_455   S
    Zr3    O15       2.39525      .   S
    N16    O17       1.66363  1_655   S
    Zr0    O17       2.39524      .   S
    N16    O18       2.04134  1_655   S
    Zr2    O18       3.17909      .   S
    N16    O19       2.02067  1_545   S
    Zr5    O19       2.91177      .   S
    N20    O21       2.03930      .   S
    Zr1    O21       3.17729      .   S
    N20    O22       1.66324      .   S
    Zr2    O22       2.39664      .   S
    N20    O23       1.77101      .   S
    Zr0    O23       2.58992      .   S
    N20    O24       2.21823      .   S
    Zr0    O24       3.31607  1_455   S
    N20    O25       2.01810      .   S
    Zr4    O25       2.91007      .   S
    N26    O27       2.03704      .   S
    Zr0    O27       3.17205  1_455   S
    N26    O28       1.66344      .   S
    Zr1    O28       2.39741      .   S
    N26    O29       2.21580  1_655   S
    Zr2    O29       3.31250      .   S
    N26    O30       2.01919  1_556   S
    Zr3    O30       2.91333      .   S
    N26    O31       1.77095      .   S
    Zr2    O31       2.58986      .   S
    N32    O33       2.03703      .   S
    Zr3    O33       3.17205  1_655   S
    N32    O34       1.66344      .   S
    Zr4    O34       2.39740      .   S
    N32    O35       2.01919  1_554   S
    Zr0    O35       2.91333      .   S
    N32    O36       2.21581  1_455   S
    Zr5    O36       3.31252      .   S
    N32    O37       1.77094      .   S
    Zr5    O37       2.58986      .   S
    Zr2    O38       3.13842      .   S
    N32    O38       2.05063  1_554   S
    Zr5    O39       3.13843      .   S
    N26    O39       2.05063  1_556   S
    Zr1    O40       3.13573      .   S
    N12    O40       2.05012  1_565   S
    Zr1    O41       2.23551      .   S
    N16    O41       2.10824      .   S
    Zr0    O42       3.13658  1_455   S
    N6     O42       2.05005      .   S
    Zr4    O43       2.23551      .   S
    N12    O43       2.10823      .   S
    Zr4    O44       3.13572      .   S
    N16    O44       2.05012  1_545   S
    Zr3    O45       3.13655  1_655   S
    N20    O45       2.05004      .   S
