# CIF file generated by openbabel 2.4.90, see http://openbabel.sf.net
data_I
_chemical_name_common ''
_cell_length_a 8.75
_cell_length_b 12.597
_cell_length_c 12.598
_cell_angle_alpha 114.647
_cell_angle_beta 103.32
_cell_angle_gamma 103.37
_space_group_name_H-M_alt 'P 1'
_space_group_name_Hall 'P 1'
loop_
    _symmetry_equiv_pos_as_xyz
    x,y,z
loop_
    _atom_site_label
    _atom_site_type_symbol
    _atom_site_fract_x
    _atom_site_fract_y
    _atom_site_fract_z
    _atom_site_occupancy
    Zr0     Zr   0.01289   0.42603   0.62348   1.000
    Zr1     Zr   0.58699   0.19684   0.57411   1.000
    Zr2     Zr   0.38929   0.37600   0.80319   1.000
    Zr3     Zr   0.98713   0.57397   0.37649   1.000
    Zr4     Zr   0.41302   0.80317   0.42586   1.000
    Zr5     Zr   0.61072   0.62400   0.19678   1.000
    N6      N    0.47397   0.37148   0.29813   1.000
    O7      O    0.43434   0.53200   0.32254   1.000
    O8      O    0.48377   0.48721   0.26527   1.000
    O9      O    0.56363   0.30525   0.41003   1.000
    O10     O    0.67011   0.36255   0.42237   1.000
    O11     O    0.70333   0.39309   0.40709   1.000
    O12     O    0.69689   0.43008   0.34534   1.000
    O13     O    0.26965   0.44678   0.31277   1.000
    N14     N    0.10141   0.92615   0.62859   1.000
    O15     O    0.25770   0.10405   0.69512   1.000
    O16     O    0.30713   0.05926   0.63784   1.000
    O17     O    0.30926   0.01351   0.60686   1.000
    O18     O    0.26577   0.91509   0.56980   1.000
    O19     O    0.90190   0.79071   0.46802   1.000
    O20     O    0.99600   0.77820   0.51295   1.000
    O21     O    0.32219   0.86600   0.55317   1.000
    N22     N    0.89861   0.07386   0.37139   1.000
    O23     O    0.00401   0.22180   0.48702   1.000
    O24     O    0.09811   0.20929   0.53195   1.000
    O25     O    0.67783   0.13400   0.44680   1.000
    O26     O    0.74231   0.89595   0.30486   1.000
    O27     O    0.69288   0.94074   0.36213   1.000
    O28     O    0.73424   0.08491   0.43018   1.000
    O29     O    0.69075   0.98649   0.39311   1.000
    N30     N    0.52604   0.62853   0.70184   1.000
    O31     O    0.56567   0.46800   0.67743   1.000
    O32     O    0.51625   0.51279   0.73471   1.000
    O33     O    0.30313   0.56992   0.65463   1.000
    O34     O    0.29669   0.60691   0.59288   1.000
    O35     O    0.73037   0.55322   0.68720   1.000
    O36     O    0.43638   0.69475   0.58994   1.000
    O37     O    0.32991   0.63746   0.57760   1.000
    N38     N    0.82446   0.29758   0.92710   1.000
    O39     O    0.88850   0.32214   0.79110   1.000
    O40     O    0.78203   0.26484   0.77876   1.000
    O41     O    0.04325   0.31203   0.86647   1.000
    O42     O    0.84689   0.40984   0.10476   1.000
    O43     O    0.75279   0.42234   0.05983   1.000
    O44     O    0.64874   0.34501   0.91582   1.000
    O45     O    0.70410   0.40701   0.01422   1.000
    N46     N    0.17555   0.70243   0.07287   1.000
    O47     O    0.11151   0.67787   0.20887   1.000
    O48     O    0.21799   0.73517   0.22122   1.000
    O49     O    0.15312   0.59017   0.89521   1.000
    O50     O    0.24722   0.57766   0.94014   1.000
    O51     O    0.95676   0.68797   0.13350   1.000
    O52     O    0.29591   0.59299   0.98575   1.000
    O53     O    0.35127   0.65499   0.08415   1.000
loop_
    _geom_bond_atom_site_label_1
    _geom_bond_atom_site_label_2
    _geom_bond_distance
    _geom_bond_site_symmetry_2
    _ccdc_geom_bond_type
    N6     O7        2.03931      .   S
    Zr4    O7        3.17730      .   S
    N6     O8        1.66323      .   S
    Zr5    O8        2.39662      .   S
    N6     O9        2.01810      .   S
    Zr1    O9        2.91007      .   S
    N6     O10       2.09908      .   S
    Zr0    O10       3.12312  1_455   S
    N6     O11       2.03764      .   S
    Zr0    O11       3.17412  1_455   S
    N6     O12       1.77101      .   S
    Zr3    O12       2.58994      .   S
    N6     O13       2.21822      .   S
    Zr3    O13       3.31605  1_655   S
    N14    O15       2.02067  1_565   S
    Zr2    O15       2.91177      .   S
    N14    O16       2.09997  1_565   S
    Zr1    O16       3.12225      .   S
    N14    O17       2.03689  1_565   S
    Zr1    O17       3.17331      .   S
    N14    O18       1.77025      .   S
    Zr4    O18       2.59236      .   S
    N14    O19       2.04134  1_455   S
    Zr5    O19       3.17908      .   S
    N14    O20       1.66364  1_455   S
    Zr3    O20       2.39525      .   S
    N14    O21       2.47606      .   S
    Zr4    O21       1.91051      .   S
    N22    O23       1.66363  1_655   S
    Zr0    O23       2.39524      .   S
    N22    O24       2.04134  1_655   S
    Zr2    O24       3.17909      .   S
    N22    O25       2.47606      .   S
    Zr1    O25       1.91050      .   S
    N22    O26       2.02067  1_545   S
    Zr5    O26       2.91177      .   S
    N22    O27       2.09997  1_545   S
    Zr4    O27       3.12225      .   S
    N22    O28       1.77025      .   S
    Zr1    O28       2.59236      .   S
    N22    O29       2.03689  1_545   S
    Zr4    O29       3.17330      .   S
    N30    O31       2.03930      .   S
    Zr1    O31       3.17729      .   S
    N30    O32       1.66324      .   S
    Zr2    O32       2.39664      .   S
    N30    O33       1.77101      .   S
    Zr0    O33       2.58992      .   S
    N30    O34       2.03764      .   S
    Zr3    O34       3.17409  1_655   S
    N30    O35       2.21823      .   S
    Zr0    O35       3.31607  1_455   S
    N30    O36       2.01810      .   S
    Zr4    O36       2.91007      .   S
    N30    O37       2.09908      .   S
    Zr3    O37       3.12309  1_655   S
    N38    O39       2.03704      .   S
    Zr0    O39       3.17205  1_455   S
    N38    O40       1.66344      .   S
    Zr1    O40       2.39741      .   S
    N38    O41       2.21580  1_655   S
    Zr2    O41       3.31250      .   S
    N38    O42       2.01919  1_556   S
    Zr3    O42       2.91333      .   S
    N38    O43       2.09921  1_556   S
    Zr5    O43       3.12541      .   S
    N38    O44       1.77095      .   S
    Zr2    O44       2.58986      .   S
    N38    O45       2.03869  1_556   S
    Zr5    O45       3.17555      .   S
    N46    O47       2.03703      .   S
    Zr3    O47       3.17205  1_655   S
    N46    O48       1.66344      .   S
    Zr4    O48       2.39740      .   S
    N46    O49       2.01919  1_554   S
    Zr0    O49       2.91333      .   S
    N46    O50       2.09920  1_554   S
    Zr2    O50       3.12540      .   S
    N46    O51       2.21581  1_455   S
    Zr5    O51       3.31252      .   S
    N46    O52       2.03869  1_554   S
    Zr2    O52       3.17554      .   S
    N46    O53       1.77094      .   S
    Zr5    O53       2.58986      .   S
