# CIF file generated by openbabel 2.4.90, see http://openbabel.sf.net
data_I
_chemical_name_common ''
_cell_length_a 6.1945
_cell_length_b 7.7725
_cell_length_c 13.351
_cell_angle_alpha 104.87
_cell_angle_beta 95.281
_cell_angle_gamma 90.019
_space_group_name_H-M_alt 'P 1'
_space_group_name_Hall 'P 1'
loop_
    _symmetry_equiv_pos_as_xyz
    x,y,z
loop_
    _atom_site_label
    _atom_site_type_symbol
    _atom_site_fract_x
    _atom_site_fract_y
    _atom_site_fract_z
    _atom_site_occupancy
    N0      N    0.91873   0.67906   0.52377   1.000
    N1      N    0.20463   0.64766   0.14891   1.000
    N2      N    0.47184   0.28893   0.77847   1.000
    Zr3     Zr   0.58903   0.04127   0.47686   1.000
    O4      O    0.69260   0.23896   0.49017   1.000
    O5      O    0.47557   0.92598   0.37281   1.000
    Zr6     Zr   0.79688   0.69393   0.82558   1.000
    O7      O    0.91271   0.68555   0.92877   1.000
    O8      O    0.69479   0.87953   0.81211   1.000
    O9      O    0.55609   0.11393   0.57330   1.000
    O10     O    0.68249   0.92369   0.48761   1.000
    O11     O    0.83132   0.68250   0.72905   1.000
    O12     O    0.70509   0.56630   0.81478   1.000
loop_
    _geom_bond_atom_site_label_1
    _geom_bond_atom_site_label_2
    _geom_bond_distance
    _geom_bond_site_symmetry_2
    _ccdc_geom_bond_type
    Zr3    O4        1.62552      .   S
    N0     O4        3.59977      .   S
    Zr3    O5        1.55170  1_545   S
    N1     O5        3.49104      .   S
    Zr6    O7        1.51040      .   S
    N1     O7        3.38544  1_454   S
    Zr6    O8        1.62048      .   S
    N2     O8        3.58567  1_545   S
    Zr3    O9        1.30141      .   S
    N2     O9        2.82432      .   S
    N0     O10       2.51647      .   S
    Zr3    O10       1.11507  1_545   S
    N0     O11       2.83571      .   S
    Zr6    O11       1.30615      .   S
    N2     O12       2.51053      .   S
    Zr6    O12       1.11327      .   S
