# CIF file generated by openbabel 2.4.90, see http://openbabel.sf.net
data_I
_chemical_name_common ''
_cell_length_a 6.1945
_cell_length_b 7.7725
_cell_length_c 13.351
_cell_angle_alpha 104.87
_cell_angle_beta 95.281
_cell_angle_gamma 90.019
_space_group_name_H-M_alt 'P 1'
_space_group_name_Hall 'P 1'
loop_
    _symmetry_equiv_pos_as_xyz
    x,y,z
loop_
    _atom_site_label
    _atom_site_type_symbol
    _atom_site_fract_x
    _atom_site_fract_y
    _atom_site_fract_z
    _atom_site_occupancy
    Zr0     Zr   0.58903   0.04127   0.47686   1.000
    Zr1     Zr   0.79688   0.69393   0.82558   1.000
    N2      N    0.91873   0.67906   0.52377   1.000
    O3      O    0.79616   0.43665   0.50348   1.000
    O4      O    0.82981   0.63945   0.63025   1.000
    O5      O    0.90172   0.70269   0.63480   1.000
    O6      O    0.78675   0.78104   0.49346   1.000
    O7      O    0.85226   0.84971   0.49993   1.000
    O8      O    0.67805   0.81264   0.50661   1.000
    N9      N    0.20463   0.64766   0.14891   1.000
    O10     O    0.36211   0.81069   0.26875   1.000
    O11     O    0.02854   0.67717   0.03196   1.000
    N12     N    0.47184   0.28893   0.77847   1.000
    O13     O    0.55911   0.15685   0.67189   1.000
    O14     O    0.59270   0.06512   0.79864   1.000
    O15     O    0.48718   0.21632   0.66760   1.000
    O16     O    0.60285   0.41783   0.80825   1.000
    O17     O    0.53658   0.48060   0.80174   1.000
    O18     O    0.71090   0.43839   0.79767   1.000
loop_
    _geom_bond_atom_site_label_1
    _geom_bond_atom_site_label_2
    _geom_bond_distance
    _geom_bond_site_symmetry_2
    _ccdc_geom_bond_type
    N2     O3        1.97464      .   S
    Zr0    O3        3.25105      .   S
    N2     O4        1.66974      .   S
    Zr1    O4        2.55985      .   S
    N2     O5        1.46000      .   S
    Zr1    O5        2.70315      .   S
    N2     O6        1.25079      .   S
    Zr0    O6        2.41290  1_545   S
    N2     O7        1.49097      .   S
    Zr0    O7        2.26163  1_545   S
    N2     O8        1.84759      .   S
    Zr0    O8        1.98546  1_545   S
    N9     O10       1.94648      .   S
    Zr0    O10       3.10340  1_545   S
    N9     O11       1.88434      .   S
    Zr1    O11       3.02081  1_656   S
    N12    O13       1.66225      .   S
    Zr0    O13       2.55139      .   S
    N12    O14       1.96553      .   S
    Zr1    O14       3.24096  1_565   S
    N12    O15       1.45456      .   S
    Zr0    O15       2.69295      .   S
    N12    O16       1.24741      .   S
    Zr1    O16       2.40744      .   S
    N12    O17       1.48857      .   S
    Zr1    O17       2.25464      .   S
    N12    O18       1.83961      .   S
    Zr1    O18       1.98761      .   S
