# CIF file generated by openbabel 2.4.90, see http://openbabel.sf.net
data_I
_chemical_name_common ''
_cell_length_a 9.0205
_cell_length_b 9.026
_cell_length_c 19.517
_cell_angle_alpha 89.999
_cell_angle_beta 89.997
_cell_angle_gamma 68.782
_space_group_name_H-M_alt 'P 1'
_space_group_name_Hall 'P 1'
loop_
    _symmetry_equiv_pos_as_xyz
    x,y,z
loop_
    _atom_site_label
    _atom_site_type_symbol
    _atom_site_fract_x
    _atom_site_fract_y
    _atom_site_fract_z
    _atom_site_occupancy
    Al0     Al   0.16692   0.85640   0.08283   1.000
    Al1     Al   0.20516   0.50124   0.31762   1.000
    Al2     Al   0.19677   0.51941   0.82648   1.000
    Al3     Al   0.33312   0.64347   0.58283   1.000
    Al4     Al   0.29474   0.99842   0.81762   1.000
    Al5     Al   0.69698   0.01945   0.67633   1.000
    Al6     Al   0.83296   0.14339   0.91995   1.000
    Al7     Al   0.79489   0.49849   0.68517   1.000
    Al8     Al   0.80311   0.48035   0.17630   1.000
    Al9     Al   0.66691   0.35631   0.41995   1.000
    Al10    Al   0.70522   0.00127   0.18518   1.000
    O11     O    0.26842   0.92682   0.24162   1.000
    O12     O    0.41634   0.78108   0.23306   1.000
    Al13    Al   0.30306   0.98032   0.32645   1.000
    O14     O    0.23160   0.57297   0.74168   1.000
    O15     O    0.08375   0.71878   0.73312   1.000
    O16     O    0.73149   0.07292   0.76119   1.000
    O17     O    0.58350   0.21861   0.76971   1.000
    O18     O    0.76842   0.42681   0.26112   1.000
    O19     O    0.91633   0.28105   0.26967   1.000
    Ts20    Ts   0.23341   0.84566   0.08964   1.000
    Ts21    Ts   0.16686   0.83928   0.05522   1.000
    Ts22    Ts   0.12629   0.92324   0.08666   1.000
    Ts23    Ts   0.14307   0.81469   0.09853   1.000
    Ts24    Ts   0.22249   0.53070   0.34137   1.000
    Ts25    Ts   0.25961   0.44714   0.30771   1.000
    Ts26    Ts   0.18020   0.54783   0.29590   1.000
    Ts27    Ts   0.15480   0.47814   0.32644   1.000
    Ts28    Ts   0.18325   0.57035   0.84639   1.000
    Ts29    Ts   0.14508   0.49467   0.82788   1.000
    Ts30    Ts   0.25697   0.46866   0.83445   1.000
    Ts31    Ts   0.33311   0.66058   0.55400   1.000
    Ts32    Ts   0.26664   0.65418   0.58967   1.000
    Ts33    Ts   0.37379   0.57663   0.58667   1.000
    Ts34    Ts   0.35697   0.68519   0.59852   1.000
    Ts35    Ts   0.27737   0.96894   0.84135   1.000
    Ts36    Ts   0.24029   0.05252   0.80771   1.000
    Ts37    Ts   0.31975   0.95186   0.79590   1.000
    Ts38    Ts   0.34507   0.02153   0.82647   1.000
    Ts39    Ts   0.75721   0.96873   0.66836   1.000
    Ts40    Ts   0.68348   0.07043   0.65644   1.000
    Ts41    Ts   0.64532   0.99468   0.67491   1.000
    Ts42    Ts   0.87359   0.07654   0.91612   1.000
    Ts43    Ts   0.85681   0.18510   0.90425   1.000
    Ts44    Ts   0.76646   0.15414   0.91314   1.000
    Ts45    Ts   0.83301   0.16051   0.94879   1.000
    Ts46    Ts   0.81982   0.45185   0.70687   1.000
    Ts47    Ts   0.84524   0.52161   0.67636   1.000
    Ts48    Ts   0.77757   0.46903   0.66141   1.000
    Ts49    Ts   0.74042   0.55257   0.69507   1.000
    Ts50    Ts   0.74289   0.53108   0.16832   1.000
    Ts51    Ts   0.81660   0.42938   0.15640   1.000
    Ts52    Ts   0.85478   0.50511   0.17488   1.000
    Ts53    Ts   0.62625   0.42316   0.41611   1.000
    Ts54    Ts   0.64305   0.31460   0.40426   1.000
    Ts55    Ts   0.66692   0.33919   0.44878   1.000
    Ts56    Ts   0.73339   0.34559   0.41312   1.000
    Ts57    Ts   0.68023   0.04785   0.20689   1.000
    Ts58    Ts   0.65487   0.97817   0.17634   1.000
    Ts59    Ts   0.72258   0.03072   0.16143   1.000
    Ts60    Ts   0.75967   0.94718   0.19510   1.000
    Ts61    Ts   0.44135   0.78596   0.20846   1.000
    Ts62    Ts   0.31656   0.92933   0.34634   1.000
    Ts63    Ts   0.35474   0.00506   0.32788   1.000
    Ts64    Ts   0.24284   0.03105   0.33442   1.000
    Ts65    Ts   0.05874   0.71390   0.70852   1.000
    Ts66    Ts   0.55850   0.21376   0.79432   1.000
    Ts67    Ts   0.94133   0.28592   0.29427   1.000
loop_
    _geom_bond_atom_site_label_1
    _geom_bond_atom_site_label_2
    _geom_bond_distance
    _geom_bond_site_symmetry_2
    _ccdc_geom_bond_type
    Al8    O18       1.78374      .   S
    O12    O11       1.50607      .   S
    O11    Al13      1.78372      .   S
    O18    O19       1.50610      .   S
    Al5    O16       1.78369      .   S
    O15    O14       1.50609      .   S
    O14    Al2       1.78374      .   S
    O16    O17       1.50612      .   S
    Al0    Ts20      0.58718      .   S
    Al0    Ts21      0.56062      .   S
    Al0    Ts22      0.58644      .   S
    Al0    Ts23      0.58359      .   S
    Al1    Ts24      0.58324      .   S
    Al1    Ts25      0.58603      .   S
    Al1    Ts26      0.58187      .   S
    Al1    Ts27      0.58994      .   S
    Al2    Ts28      0.58031      .   S
    Al2    Ts29      0.58599      .   S
    Al2    Ts30      0.59066      .   S
    Al3    Ts31      0.58359      .   S
    Al3    Ts32      0.58715      .   S
    Al3    Ts33      0.58647      .   S
    Al3    Ts34      0.58357      .   S
    Al4    Ts35      0.58319      .   S
    Al4    Ts36      0.58604  1_565   S
    Al4    Ts37      0.58183      .   S
    Al4    Ts38      0.58996  1_565   S
    Al5    Ts39      0.59067  1_545   S
    Al5    Ts40      0.58031      .   S
    Al5    Ts41      0.58592  1_545   S
    Al6    Ts42      0.58646      .   S
    Al6    Ts43      0.58362      .   S
    Al6    Ts44      0.58718      .   S
    Al6    Ts45      0.58361      .   S
    Al7    Ts46      0.58190      .   S
    Al7    Ts47      0.58997      .   S
    Al7    Ts48      0.58326      .   S
    Al7    Ts49      0.58604      .   S
    Al8    Ts50      0.59069      .   S
    Al8    Ts51      0.58030      .   S
    Al8    Ts52      0.58599      .   S
    Al9    Ts53      0.58648      .   S
    Al9    Ts54      0.58358      .   S
    Al9    Ts55      0.58359      .   S
    Al9    Ts56      0.58714      .   S
    Al10   Ts57      0.58183      .   S
    Al10   Ts58      0.58996  1_545   S
    Al10   Ts59      0.58321      .   S
    Al10   Ts60      0.58606  1_545   S
    O12    Ts61      0.53897      .   S
    Al13   Ts62      0.58030      .   S
    Al13   Ts63      0.58595  1_565   S
    Al13   Ts64      0.59066  1_565   S
    O15    Ts65      0.53896      .   S
    O17    Ts66      0.53897      .   S
    O19    Ts67      0.53896      .   S
