# CIF file generated by openbabel 2.4.90, see http://openbabel.sf.net
data_I
_chemical_name_common ''
_cell_length_a 9.0205
_cell_length_b 9.026
_cell_length_c 19.517
_cell_angle_alpha 89.999
_cell_angle_beta 89.997
_cell_angle_gamma 68.782
_space_group_name_H-M_alt 'P 1'
_space_group_name_Hall 'P 1'
loop_
    _symmetry_equiv_pos_as_xyz
    x,y,z
loop_
    _atom_site_label
    _atom_site_type_symbol
    _atom_site_fract_x
    _atom_site_fract_y
    _atom_site_fract_z
    _atom_site_occupancy
    N0      N    0.49127   0.20366   0.85940   1.000
    N1      N    0.13005   0.83264   0.92063   1.000
    N2      N    0.51294   0.19155   0.31045   1.000
    N3      N    0.36973   0.66705   0.41989   1.000
    N4      N    0.86981   0.16708   0.08288   1.000
    N5      N    0.98694   0.30813   0.81043   1.000
    N6      N    0.50860   0.79611   0.14340   1.000
    N7      N    0.63033   0.33272   0.58289   1.000
    N8      N    0.00853   0.29606   0.35934   1.000
    N9      N    0.01297   0.69162   0.19235   1.000
    N10     N    0.48709   0.80818   0.69233   1.000
    N11     N    0.99151   0.70373   0.64346   1.000
    Zr12    Zr   0.16692   0.85640   0.08283   1.000
    O13     O    0.11949   0.79956   0.11610   1.000
    O14     O    0.15768   0.84404   0.03192   1.000
    O15     O    0.07741   0.95913   0.08428   1.000
    O16     O    0.27728   0.83730   0.10053   1.000
    Zr17    Zr   0.17070   0.60372   0.76709   1.000
    O18     O    0.09479   0.65566   0.71847   1.000
    O19     O    0.27994   0.46360   0.80800   1.000
    O20     O    0.16199   0.65898   0.82779   1.000
    O21     O    0.11189   0.49946   0.79330   1.000
    Zr22    Zr   0.29474   0.99842   0.81762   1.000
    O23     O    0.35221   0.93340   0.77815   1.000
    O24     O    0.36275   0.05840   0.83138   1.000
    O25     O    0.24705   0.94592   0.85227   1.000
    O26     O    0.19737   0.09614   0.81211   1.000
    Zr27    Zr   0.32927   0.89607   0.26704   1.000
    O28     O    0.40525   0.84416   0.21841   1.000
    O29     O    0.21995   0.03616   0.30796   1.000
    O30     O    0.33789   0.84076   0.32757   1.000
    O31     O    0.38802   0.00028   0.29328   1.000
    Zr32    Zr   0.33312   0.64347   0.58283   1.000
    O33     O    0.42268   0.54071   0.58429   1.000
    O34     O    0.38056   0.70029   0.61609   1.000
    O35     O    0.22279   0.66255   0.60055   1.000
    O36     O    0.34227   0.65578   0.53128   1.000
    Zr37    Zr   0.82929   0.39607   0.23570   1.000
    O38     O    0.90523   0.34414   0.28432   1.000
    O39     O    0.88804   0.50031   0.20948   1.000
    O40     O    0.71999   0.53617   0.19478   1.000
    O41     O    0.83793   0.34078   0.17518   1.000
    Zr42    Zr   0.70522   0.00127   0.18518   1.000
    O43     O    0.80258   0.90357   0.19069   1.000
    O44     O    0.64778   0.06631   0.22464   1.000
    O45     O    0.75288   0.05376   0.15070   1.000
    O46     O    0.63718   0.94132   0.17142   1.000
    Zr47    Zr   0.67066   0.10366   0.73574   1.000
    O48     O    0.66209   0.15899   0.67522   1.000
    O49     O    0.78004   0.96361   0.69483   1.000
    O50     O    0.61197   0.99945   0.70950   1.000
    O51     O    0.59465   0.15558   0.78438   1.000
    Zr52    Zr   0.20516   0.50124   0.31762   1.000
    O53     O    0.13712   0.44128   0.33135   1.000
    O54     O    0.14775   0.56631   0.27816   1.000
    O55     O    0.30252   0.40353   0.31211   1.000
    O56     O    0.25280   0.55374   0.35209   1.000
    Zr57    Zr   0.66691   0.35631   0.41995   1.000
    O58     O    0.77724   0.33723   0.40223   1.000
    O59     O    0.65777   0.34399   0.47150   1.000
    O60     O    0.61947   0.29948   0.38669   1.000
    O61     O    0.57737   0.45906   0.41850   1.000
    Zr62    Zr   0.79489   0.49849   0.68517   1.000
    O63     O    0.86293   0.55847   0.67144   1.000
    O64     O    0.69751   0.59619   0.69067   1.000
    O65     O    0.85225   0.43341   0.72462   1.000
    O66     O    0.74725   0.44600   0.65069   1.000
    Zr67    Zr   0.83296   0.14339   0.91995   1.000
    O68     O    0.72260   0.16249   0.90226   1.000
    O69     O    0.92247   0.04063   0.91869   1.000
    O70     O    0.84219   0.15573   0.97150   1.000
    O71     O    0.88040   0.20022   0.88668   1.000
loop_
    _geom_bond_atom_site_label_1
    _geom_bond_atom_site_label_2
    _geom_bond_distance
    _geom_bond_site_symmetry_2
    _ccdc_geom_bond_type
    Zr12   O13       1.01326      .   S
    N9     O13       2.18282      .   S
    Zr12   O14       1.00651      .   S
    N1     O14       2.19298  1_556   S
    Zr12   O15       0.98525      .   S
    N4     O15       2.11803  1_645   S
    Zr12   O16       1.00785      .   S
    N6     O16       2.15197      .   S
    Zr17   O18       1.16490      .   S
    N11    O18       1.70489  1_655   S
    Zr17   O19       1.51857      .   S
    N0     O19       2.62823      .   S
    Zr17   O20       1.27672      .   S
    N1     O20       2.34448      .   S
    Zr17   O21       1.33784      .   S
    N5     O21       2.40290  1_655   S
    Zr22   O23       0.99308      .   S
    N10    O23       2.13729      .   S
    Zr22   O24       0.99094  1_565   S
    N0     O24       2.11248      .   S
    Zr22   O25       1.00724      .   S
    N1     O25       2.17265      .   S
    Zr22   O26       1.00008  1_565   S
    N5     O26       2.15324  1_655   S
    Zr27   O28       1.16517      .   S
    N6     O28       1.70526      .   S
    Zr27   O29       1.51861  1_565   S
    N8     O29       2.62821      .   S
    Zr27   O30       1.27377      .   S
    N3     O30       2.33701      .   S
    Zr27   O31       1.33737  1_565   S
    N2     O31       2.40225      .   S
    Zr32   O33       0.98550      .   S
    N7     O33       2.11860      .   S
    Zr32   O34       1.01311      .   S
    N10    O34       2.18249      .   S
    Zr32   O35       1.00780      .   S
    N11    O35       2.15185  1_655   S
    Zr32   O36       1.01882      .   S
    N3     O36       2.19465      .   S
    Zr37   O38       1.16510      .   S
    N8     O38       1.70514  1_455   S
    Zr37   O39       1.33750      .   S
    N9     O39       2.40245  1_455   S
    Zr37   O40       1.51869      .   S
    N6     O40       2.62831      .   S
    Zr37   O41       1.27354      .   S
    N4     O41       2.33657      .   S
    Zr42   O43       0.99993  1_545   S
    N9     O43       2.15287  1_455   S
    Zr42   O44       0.99298      .   S
    N2     O44       2.13705      .   S
    Zr42   O45       1.00479      .   S
    N4     O45       2.16593      .   S
    Zr42   O46       0.99097  1_545   S
    N6     O46       2.11255      .   S
    Zr47   O48       1.27392      .   S
    N7     O48       2.33725      .   S
    Zr47   O49       1.51862  1_545   S
    N11    O49       2.62816      .   S
    Zr47   O50       1.33706  1_545   S
    N10    O50       2.40198      .   S
    Zr47   O51       1.16531      .   S
    N0     O51       1.70546      .   S
    Zr52   O53       0.99089      .   S
    N8     O53       2.11236      .   S
    Zr52   O54       0.99298      .   S
    N9     O54       2.13701      .   S
    Zr52   O55       1.00002      .   S
    N2     O55       2.15312      .   S
    Zr52   O56       1.00470      .   S
    N3     O56       2.16573      .   S
    Zr57   O58       1.00781      .   S
    N8     O58       2.15186  1_455   S
    Zr57   O59       1.01881      .   S
    N7     O59       2.19461      .   S
    Zr57   O60       1.01319      .   S
    N2     O60       2.18267      .   S
    Zr57   O61       0.98544      .   S
    N3     O61       2.11846      .   S
    Zr62   O63       0.99102      .   S
    N11    O63       2.11266      .   S
    Zr62   O64       1.00004      .   S
    N10    O64       2.15316      .   S
    Zr62   O65       0.99282      .   S
    N5     O65       2.13661      .   S
    Zr62   O66       1.00465      .   S
    N7     O66       2.16558      .   S
    Zr67   O68       1.00787      .   S
    N0     O68       2.15199      .   S
    Zr67   O69       0.98525      .   S
    N1     O69       2.11842  1_465   S
    Zr67   O70       1.01886      .   S
    N4     O70       2.19472  1_554   S
    Zr67   O71       1.01324      .   S
    N5     O71       2.18276      .   S
