# CIF file generated by openbabel 2.4.90, see http://openbabel.sf.net
data_I
_chemical_name_common ''
_cell_length_a 9.0205
_cell_length_b 9.026
_cell_length_c 19.517
_cell_angle_alpha 89.999
_cell_angle_beta 89.997
_cell_angle_gamma 68.782
_space_group_name_H-M_alt 'P 1'
_space_group_name_Hall 'P 1'
loop_
    _symmetry_equiv_pos_as_xyz
    x,y,z
loop_
    _atom_site_label
    _atom_site_type_symbol
    _atom_site_fract_x
    _atom_site_fract_y
    _atom_site_fract_z
    _atom_site_occupancy
    Zr0     Zr   0.30306   0.98032   0.32645   1.000
    Zr1     Zr   0.16692   0.85640   0.08283   1.000
    Zr2     Zr   0.20516   0.50124   0.31762   1.000
    Zr3     Zr   0.19677   0.51941   0.82648   1.000
    Zr4     Zr   0.33312   0.64347   0.58283   1.000
    Zr5     Zr   0.29474   0.99842   0.81762   1.000
    Zr6     Zr   0.69698   0.01945   0.67633   1.000
    Zr7     Zr   0.83296   0.14339   0.91995   1.000
    Zr8     Zr   0.79489   0.49849   0.68517   1.000
    Zr9     Zr   0.80311   0.48035   0.17630   1.000
    Zr10    Zr   0.66691   0.35631   0.41995   1.000
    Zr11    Zr   0.70522   0.00127   0.18518   1.000
    Zr12    Zr   0.26842   0.92682   0.24162   1.000
    Zr13    Zr   0.41634   0.78108   0.23306   1.000
    Zr14    Zr   0.23160   0.57297   0.74168   1.000
    Zr15    Zr   0.08375   0.71878   0.73312   1.000
    Zr16    Zr   0.73149   0.07292   0.76119   1.000
    Zr17    Zr   0.58350   0.21861   0.76971   1.000
    Zr18    Zr   0.76842   0.42681   0.26112   1.000
    Zr19    Zr   0.91633   0.28105   0.26967   1.000
    O20     O    0.78576   0.45358   0.21871   1.000
    O21     O    0.34238   0.85395   0.23734   1.000
    O22     O    0.28574   0.95357   0.28403   1.000
    O23     O    0.84237   0.35393   0.26540   1.000
    O24     O    0.71423   0.04618   0.71876   1.000
    O25     O    0.15767   0.64587   0.73740   1.000
    O26     O    0.21418   0.54619   0.78408   1.000
    O27     O    0.65750   0.14577   0.76545   1.000
    N28     N    0.49127   0.20366   0.85940   1.000
    O29     O    0.61224   0.18159   0.88456   1.000
    O30     O    0.38917   0.32348   0.84892   1.000
    O31     O    0.51864   0.20749   0.83301   1.000
    O32     O    0.43075   0.11837   0.84514   1.000
    N33     N    0.13005   0.83264   0.92063   1.000
    O34     O    0.01198   0.93788   0.91742   1.000
    O35     O    0.15327   0.71423   0.88849   1.000
    O36     O    0.19937   0.89342   0.88693   1.000
    O37     O    0.14844   0.83168   0.98102   1.000
    N38     N    0.51294   0.19155   0.31045   1.000
    O39     O    0.57203   0.24265   0.35343   1.000
    O40     O    0.39989   0.30582   0.30661   1.000
    O41     O    0.44676   0.10449   0.31952   1.000
    O42     O    0.59034   0.13135   0.26410   1.000
    N43     N    0.36973   0.66705   0.41989   1.000
    O44     O    0.34652   0.78544   0.38809   1.000
    O45     O    0.48782   0.56181   0.41704   1.000
    O46     O    0.30044   0.60623   0.38657   1.000
    O47     O    0.35141   0.66809   0.47973   1.000
    N48     N    0.86981   0.16708   0.08288   1.000
    O49     O    0.80054   0.10626   0.11622   1.000
    O50     O    0.84658   0.28549   0.11467   1.000
    O51     O    0.98789   0.06187   0.08573   1.000
    O52     O    0.85143   0.16807   0.02304   1.000
    N53     N    0.98694   0.30813   0.81043   1.000
    O54     O    0.90961   0.36833   0.76408   1.000
    O55     O    0.05308   0.39521   0.81951   1.000
    O56     O    0.92784   0.25704   0.85342   1.000
    O57     O    0.10000   0.19385   0.80660   1.000
    N58     N    0.50860   0.79611   0.14340   1.000
    O59     O    0.48123   0.79225   0.16978   1.000
    O60     O    0.56915   0.88136   0.15766   1.000
    O61     O    0.38763   0.81820   0.11823   1.000
    O62     O    0.61069   0.67628   0.15387   1.000
    N63     N    0.63033   0.33272   0.58289   1.000
    O64     O    0.69962   0.39351   0.61621   1.000
    O65     O    0.51223   0.43796   0.58574   1.000
    O66     O    0.64863   0.33168   0.52305   1.000
    O67     O    0.65353   0.21432   0.61469   1.000
    N68     N    0.00853   0.29606   0.35934   1.000
    O69     O    0.06907   0.38133   0.34509   1.000
    O70     O    0.88758   0.31814   0.38452   1.000
    O71     O    0.11063   0.17624   0.34887   1.000
    O72     O    0.98118   0.29221   0.33295   1.000
    N73     N    0.01297   0.69162   0.19235   1.000
    O74     O    0.94680   0.60456   0.18326   1.000
    O75     O    0.89993   0.80588   0.19620   1.000
    O76     O    0.07206   0.74273   0.14937   1.000
    O77     O    0.09035   0.63137   0.23870   1.000
    N78     N    0.48709   0.80818   0.69233   1.000
    O79     O    0.42799   0.75712   0.64935   1.000
    O80     O    0.40968   0.86838   0.73869   1.000
    O81     O    0.60014   0.69389   0.69618   1.000
    O82     O    0.55329   0.89523   0.68326   1.000
    N83     N    0.99151   0.70373   0.64346   1.000
    O84     O    0.88942   0.82355   0.65392   1.000
    O85     O    0.93097   0.61845   0.65771   1.000
    O86     O    0.11246   0.68164   0.61827   1.000
    O87     O    0.01887   0.70759   0.66984   1.000
loop_
    _geom_bond_atom_site_label_1
    _geom_bond_atom_site_label_2
    _geom_bond_distance
    _geom_bond_site_symmetry_2
    _ccdc_geom_bond_type
    Zr9    O20       0.89187      .   S
    Zr18   O20       0.89187      .   S
    Zr13   O21       0.75304      .   S
    Zr12   O21       0.75304      .   S
    Zr12   O22       0.89186      .   S
    Zr0    O22       0.89186      .   S
    Zr18   O23       0.75305      .   S
    Zr19   O23       0.75305      .   S
    Zr6    O24       0.89184      .   S
    Zr16   O24       0.89184      .   S
    Zr15   O25       0.75305      .   S
    Zr14   O25       0.75305      .   S
    Zr14   O26       0.89187      .   S
    Zr3    O26       0.89187      .   S
    Zr16   O27       0.75306      .   S
    Zr17   O27       0.75306      .   S
    N28    O29       1.14647      .   S
    Zr7    O29       2.01573      .   S
    N28    O30       1.15702      .   S
    Zr3    O30       2.02730      .   S
    N28    O31       0.57754      .   S
    Zr17   O31       1.38593      .   S
    N28    O32       1.12789      .   S
    Zr5    O32       1.98189  1_565   S
    N33    O34       1.14382      .   S
    Zr7    O34       1.97050  1_645   S
    N33    O35       1.19062      .   S
    Zr3    O35       2.05221      .   S
    N33    O36       1.17173      .   S
    Zr5    O36       2.01449      .   S
    N33    O37       1.18984      .   S
    Zr1    O37       2.01302  1_554   S
    N38    O39       1.17404      .   S
    Zr10   O39       2.02637      .   S
    N38    O40       1.16108      .   S
    Zr2    O40       2.00005      .   S
    N38    O41       1.15962      .   S
    Zr0    O41       2.00158  1_565   S
    N38    O42       1.15175      .   S
    Zr11   O42       1.98596      .   S
    N43    O44       1.18704      .   S
    Zr0    O44       2.04829      .   S
    N43    O45       1.14354      .   S
    Zr10   O45       1.97088      .   S
    N43    O46       1.16755      .   S
    Zr2    O46       2.00941      .   S
    N43    O47       1.17917      .   S
    Zr4    O47       2.03764      .   S
    N48    O49       1.16766      .   S
    Zr11   O49       2.00957      .   S
    N48    O50       1.18696      .   S
    Zr9    O50       2.04817      .   S
    N48    O51       1.14333      .   S
    Zr1    O51       1.97051  1_465   S
    N48    O52       1.17918      .   S
    Zr7    O52       2.03773  1_556   S
    N53    O54       1.15151      .   S
    Zr8    O54       1.98563      .   S
    N53    O55       1.15964  1_655   S
    Zr3    O55       2.00166      .   S
    N53    O56       1.17408      .   S
    Zr7    O56       2.02648      .   S
    N53    O57       1.16113  1_655   S
    Zr5    O57       2.00016  1_565   S
    N58    O59       0.57752      .   S
    Zr13   O59       1.38591      .   S
    N58    O60       1.12793      .   S
    Zr11   O60       1.98195  1_545   S
    N58    O61       1.14646      .   S
    Zr1    O61       2.01571      .   S
    N58    O62       1.15701      .   S
    Zr9    O62       2.02728      .   S
    N63    O64       1.16748      .   S
    Zr8    O64       2.00929      .   S
    N63    O65       1.14362      .   S
    Zr4    O65       1.97100      .   S
    N63    O66       1.17915      .   S
    Zr10   O66       2.03761      .   S
    N63    O67       1.18707      .   S
    Zr6    O67       2.04834      .   S
    N68    O69       1.12783      .   S
    Zr2    O69       1.98178      .   S
    N68    O70       1.14639  1_455   S
    Zr10   O70       2.01561      .   S
    N68    O71       1.15700      .   S
    Zr0    O71       2.02724  1_565   S
    N68    O72       0.57750  1_455   S
    Zr19   O72       1.38587      .   S
    N73    O74       1.15969  1_455   S
    Zr9    O74       2.00175      .   S
    N73    O75       1.16095  1_455   S
    Zr11   O75       1.99985  1_545   S
    N73    O76       1.17410      .   S
    Zr1    O76       2.02652      .   S
    N73    O77       1.15171      .   S
    Zr2    O77       1.98596      .   S
    N78    O79       1.17395      .   S
    Zr4    O79       2.02622      .   S
    N78    O80       1.15187      .   S
    Zr5    O80       1.98617      .   S
    N78    O81       1.16110      .   S
    Zr8    O81       2.00008      .   S
    N78    O82       1.15972      .   S
    Zr6    O82       2.00174  1_545   S
    N83    O84       1.15694      .   S
    Zr6    O84       2.02714  1_545   S
    N83    O85       1.12799      .   S
    Zr8    O85       1.98204      .   S
    N83    O86       1.14638  1_655   S
    Zr4    O86       2.01561      .   S
    N83    O87       0.57747  1_655   S
    Zr15   O87       1.38585      .   S
