# CIF file generated by openbabel 2.4.90, see http://openbabel.sf.net
data_I
_chemical_name_common ''
_cell_length_a 15.339
_cell_length_b 15.305
_cell_length_c 15.334
_cell_angle_alpha 102.202
_cell_angle_beta 102.574
_cell_angle_gamma 102.334
_space_group_name_H-M_alt 'P 1'
_space_group_name_Hall 'P 1'
loop_
    _symmetry_equiv_pos_as_xyz
    x,y,z
loop_
    _atom_site_label
    _atom_site_type_symbol
    _atom_site_fract_x
    _atom_site_fract_y
    _atom_site_fract_z
    _atom_site_occupancy
    Ts0     Ts   0.50001   0.00001   0.49999   1.000
    Ts1     Ts   0.99999   0.49996   0.49997   1.000
