# CIF file generated by openbabel 2.4.90, see http://openbabel.sf.net
data_I
_chemical_name_common ''
_cell_length_a 15.339
_cell_length_b 15.305
_cell_length_c 15.334
_cell_angle_alpha 102.202
_cell_angle_beta 102.574
_cell_angle_gamma 102.334
_space_group_name_H-M_alt 'P 1'
_space_group_name_Hall 'P 1'
loop_
    _symmetry_equiv_pos_as_xyz
    x,y,z
loop_
    _atom_site_label
    _atom_site_type_symbol
    _atom_site_fract_x
    _atom_site_fract_y
    _atom_site_fract_z
    _atom_site_occupancy
    Lv0     Lv   0.37881   0.62059   0.00009   1.000
    Lv1     Lv   0.64380   0.99996   0.35622   1.000
    Lv2     Lv   0.35618   0.00005   0.64372   1.000
    Lv3     Lv   0.63258   0.36791   0.99990   1.000
    Lv4     Lv   0.99994   0.64411   0.35532   1.000
    Lv5     Lv   0.00007   0.35582   0.64462   1.000
    Lv6     Lv   0.25132   0.74823   0.50000   1.000
    Lv7     Lv   0.29688   0.70266   0.60000   1.000
    Lv8     Lv   0.47428   0.52531   0.60000   1.000
