# CIF file generated by openbabel 2.4.90, see http://openbabel.sf.net
data_I
_chemical_name_common ''
_cell_length_a 15.339
_cell_length_b 15.305
_cell_length_c 15.334
_cell_angle_alpha 102.202
_cell_angle_beta 102.574
_cell_angle_gamma 102.334
_space_group_name_H-M_alt 'P 1'
_space_group_name_Hall 'P 1'
loop_
    _symmetry_equiv_pos_as_xyz
    x,y,z
loop_
    _atom_site_label
    _atom_site_type_symbol
    _atom_site_fract_x
    _atom_site_fract_y
    _atom_site_fract_z
    _atom_site_occupancy
    Cu0     Cu   0.98017   0.56814   0.97995   1.000
    Cu1     Cu   0.98049   0.97980   0.56802   1.000
    Cu2     Cu   0.01980   0.43177   0.02000   1.000
    Cu3     Cu   0.43184   0.01989   0.01942   1.000
    Cu4     Cu   0.01948   0.02014   0.43189   1.000
    C5      C    0.42320   0.83110   0.98788   1.000
    C6      C    0.98838   0.42358   0.83148   1.000
    C7      C    0.83108   0.98849   0.42437   1.000
    Cu8     Cu   0.56808   0.98003   0.98050   1.000
    C9      C    0.16875   0.57608   0.01217   1.000
    C10     C    0.57558   0.01140   0.16888   1.000
    C11     C    0.01187   0.16862   0.57697   1.000
    C12     C    0.57674   0.16884   0.01208   1.000
    C13     C    0.01160   0.57635   0.16847   1.000
    C14     C    0.16891   0.01153   0.57553   1.000
    C15     C    0.83123   0.42383   0.98782   1.000
    C16     C    0.42433   0.98853   0.83105   1.000
    C17     C    0.98812   0.83130   0.42299   1.000
    O18     O    0.50172   0.85083   0.97015   1.000
    O19     O    0.37432   0.88731   0.00449   1.000
    O20     O    0.97040   0.50216   0.85103   1.000
    O21     O    0.00523   0.37452   0.88771   1.000
    O22     O    0.85115   0.97011   0.50276   1.000
    O23     O    0.88694   0.00575   0.37544   1.000
    O24     O    0.14899   0.49744   0.03015   1.000
    O25     O    0.11266   0.62518   0.99519   1.000
    O26     O    0.49712   0.02951   0.14876   1.000
    O27     O    0.62451   0.99428   0.11305   1.000
    O28     O    0.02973   0.14914   0.49850   1.000
    O29     O    0.99521   0.11222   0.62579   1.000
    O30     O    0.49820   0.14910   0.02975   1.000
    O31     O    0.62561   0.11262   0.99545   1.000
    O32     O    0.02971   0.49783   0.14894   1.000
    O33     O    0.99457   0.62534   0.11221   1.000
    O34     O    0.14882   0.02980   0.49700   1.000
    O35     O    0.11306   0.99429   0.62447   1.000
    O36     O    0.85096   0.50238   0.96966   1.000
    O37     O    0.88735   0.37478   0.00493   1.000
    O38     O    0.50281   0.97044   0.85118   1.000
    O39     O    0.37538   0.00561   0.88686   1.000
    O40     O    0.97031   0.85080   0.50146   1.000
    O41     O    0.00469   0.88769   0.37413   1.000
    Og42    Og   0.41108   0.79866   0.98930   1.000
    Og43    Og   0.98977   0.41147   0.79910   1.000
    Og44    Og   0.79863   0.98982   0.41222   1.000
    Og45    Og   0.20114   0.58820   0.01077   1.000
    Og46    Og   0.58775   0.01007   0.20134   1.000
    Og47    Og   0.01047   0.20105   0.58909   1.000
    Og48    Og   0.58887   0.20128   0.01065   1.000
    Og49    Og   0.01022   0.58846   0.20085   1.000
    Og50    Og   0.20136   0.01020   0.58769   1.000
    Og51    Og   0.79885   0.41172   0.98922   1.000
    Og52    Og   0.41218   0.98987   0.79859   1.000
    Og53    Og   0.98953   0.79888   0.41087   1.000
loop_
    _geom_bond_atom_site_label_1
    _geom_bond_atom_site_label_2
    _geom_bond_distance
    _geom_bond_site_symmetry_2
    _ccdc_geom_bond_type
    O19    Cu3       1.97464  1_565   S
    O19    C5        1.27806  1_554   S
    O37    Cu2       1.97371  1_655   S
    O37    C15       1.27832  1_554   S
    C12    O30       1.27965      .   S
    C12    O31       1.27806  1_554   S
    C9     O24       1.27961      .   S
    C9     O25       1.27831  1_554   S
    Cu3    O30       1.97714      .   S
    Cu3    O26       1.97654      .   S
    Cu3    O39       1.97344  1_554   S
    Cu2    O24       1.97730      .   S
    Cu2    O32       1.97812      .   S
    Cu2    O21       1.97489  1_554   S
    O33    C13       1.27814  1_655   S
    O33    Cu0       1.97485  1_554   S
    O27    C10       1.27823  1_565   S
    O27    Cu8       1.97332  1_554   S
    O26    C10       1.27962      .   S
    O32    C13       1.27969      .   S
    O41    C17       1.27804  1_455   S
    O41    Cu4       1.97536  1_565   S
    O23    C7        1.27814  1_545   S
    O23    Cu4       1.97301  1_655   S
    C17    O40       1.27969      .   S
    C7     O22       1.27965      .   S
    Cu4    O34       1.97607      .   S
    Cu4    O28       1.97762      .   S
    O34    C14       1.28090      .   S
    O28    C11       1.28008      .   S
    O40    Cu1       1.97763      .   S
    O22    Cu1       1.97657      .   S
    Cu1    O35       1.97306  1_655   S
    Cu1    O29       1.97527  1_565   S
    C14    O35       1.27818  1_545   S
    C11    O29       1.27798  1_455   S
    C16    O38       1.27963      .   S
    C16    O39       1.27816  1_565   S
    C6     O20       1.27970      .   S
    C6     O21       1.27812  1_655   S
    O20    Cu0       1.97805      .   S
    O38    Cu8       1.97634      .   S
    O36    Cu0       1.97741      .   S
    O36    C15       1.27956      .   S
    O18    Cu8       1.97705      .   S
    O18    C5        1.27965      .   S
    Cu0    O25       1.97390  1_655   S
    Cu8    O31       1.97464  1_565   S
    Cu8    Cu3       2.45534  1_566   S
    Cu0    Cu2       2.45439  1_656   S
    Cu1    Cu4       2.45490  1_665   S
    C5     Og42      0.49850      .   S
    C6     Og43      0.49867      .   S
    C7     Og44      0.49844      .   S
    C9     Og45      0.49857      .   S
    C10    Og46      0.49839      .   S
    C11    Og47      0.49861      .   S
    C12    Og48      0.49852      .   S
    C13    Og49      0.49861      .   S
    C14    Og50      0.49845      .   S
    C15    Og51      0.49856      .   S
    C16    Og52      0.49842      .   S
    C17    Og53      0.49862      .   S
