# CIF file generated by openbabel 2.4.90, see http://openbabel.sf.net
data_I
_chemical_name_common ''
_cell_length_a 15.339
_cell_length_b 15.305
_cell_length_c 15.334
_cell_angle_alpha 102.202
_cell_angle_beta 102.574
_cell_angle_gamma 102.334
_space_group_name_H-M_alt 'P 1'
_space_group_name_Hall 'P 1'
loop_
    _symmetry_equiv_pos_as_xyz
    x,y,z
loop_
    _atom_site_label
    _atom_site_type_symbol
    _atom_site_fract_x
    _atom_site_fract_y
    _atom_site_fract_z
    _atom_site_occupancy
    N0      N    0.37881   0.62059   0.00009   1.000
    N1      N    0.64380   0.99996   0.35622   1.000
    N2      N    0.35618   0.00005   0.64372   1.000
    O3      O    0.54972   0.99999   0.45030   1.000
    N4      N    0.63258   0.36791   0.99990   1.000
    N5      N    0.99994   0.64411   0.35532   1.000
    N6      N    0.00007   0.35582   0.64462   1.000
    O7      O    0.00001   0.45016   0.55001   1.000
    Zr8     Zr   0.49996   0.99996   0.99996   1.000
    O9      O    0.44594   0.85074   0.99751   1.000
    O10     O    0.55939   0.00232   0.14343   1.000
    O11     O    0.55686   0.14634   0.00244   1.000
    O12     O    0.44055   0.99763   0.85650   1.000
    Zr13    Zr   0.99999   0.99998   0.49995   1.000
    O14     O    0.14344   0.00238   0.55935   1.000
    O15     O    0.85655   0.99760   0.44057   1.000
    O16     O    0.00246   0.14326   0.55992   1.000
    O17     O    0.99754   0.85668   0.44001   1.000
    Zr18    Zr   0.99999   0.49996   0.99998   1.000
    O19     O    0.99763   0.44029   0.85687   1.000
    O20     O    0.85380   0.44337   0.99744   1.000
    O21     O    0.00236   0.55964   0.14308   1.000
    O22     O    0.14903   0.55369   0.00253   1.000
loop_
    _geom_bond_atom_site_label_1
    _geom_bond_atom_site_label_2
    _geom_bond_distance
    _geom_bond_site_symmetry_2
    _ccdc_geom_bond_type
    N2     O3        4.63083  1_545   S
    N1     O3        2.25162      .   S
    N5     O7        4.63355  1_655   S
    N6     O7        2.25290      .   S
    Zr8    O9        2.24628      .   S
    N0     O9        3.46357  1_554   S
    Zr8    O10       2.17966  1_566   S
    N1     O10       3.24885  1_565   S
    Zr8    O11       2.21270  1_566   S
    N4     O11       3.35319  1_556   S
    Zr8    O12       2.17968      .   S
    N2     O12       3.24889  1_545   S
    Zr13   O14       2.17964  1_665   S
    N2     O14       3.24887      .   S
    Zr13   O15       2.17971      .   S
    N1     O15       3.24896      .   S
    Zr13   O16       2.18014  1_665   S
    N6     O16       3.24920      .   S
    Zr13   O17       2.18028      .   S
    N5     O17       3.24938      .   S
    Zr18   O19       2.18053      .   S
    N6     O19       3.24970  1_455   S
    Zr18   O20       2.21308      .   S
    N4     O20       3.35410      .   S
    Zr18   O21       2.18041  1_656   S
    N5     O21       3.24948  1_655   S
    Zr18   O22       2.24690  1_656   S
    N0     O22       3.46475      .   S
