# CIF file generated by openbabel 2.4.90, see http://openbabel.sf.net
data_I
_chemical_name_common ''
_cell_length_a 15.339
_cell_length_b 15.305
_cell_length_c 15.334
_cell_angle_alpha 102.202
_cell_angle_beta 102.574
_cell_angle_gamma 102.334
_space_group_name_H-M_alt 'P 1'
_space_group_name_Hall 'P 1'
loop_
    _symmetry_equiv_pos_as_xyz
    x,y,z
loop_
    _atom_site_label
    _atom_site_type_symbol
    _atom_site_fract_x
    _atom_site_fract_y
    _atom_site_fract_z
    _atom_site_occupancy
    Zr0     Zr   0.56808   0.98003   0.98050   1.000
    Zr1     Zr   0.98017   0.56814   0.97995   1.000
    Zr2     Zr   0.98049   0.97980   0.56802   1.000
    Zr3     Zr   0.01980   0.43177   0.02000   1.000
    Zr4     Zr   0.43184   0.01989   0.01942   1.000
    Zr5     Zr   0.01948   0.02014   0.43189   1.000
    Zr6     Zr   0.42320   0.83110   0.98788   1.000
    Zr7     Zr   0.98838   0.42358   0.83148   1.000
    Zr8     Zr   0.83108   0.98849   0.42437   1.000
    Zr9     Zr   0.16875   0.57608   0.01217   1.000
    Zr10    Zr   0.57558   0.01140   0.16888   1.000
    Zr11    Zr   0.01187   0.16862   0.57697   1.000
    Zr12    Zr   0.57674   0.16884   0.01208   1.000
    Zr13    Zr   0.01160   0.57635   0.16847   1.000
    Zr14    Zr   0.16891   0.01153   0.57553   1.000
    Zr15    Zr   0.83123   0.42383   0.98782   1.000
    Zr16    Zr   0.42433   0.98853   0.83105   1.000
    Zr17    Zr   0.98812   0.83130   0.42299   1.000
    Zr18    Zr   0.50172   0.85083   0.97015   1.000
    Zr19    Zr   0.37432   0.88731   0.00449   1.000
    Zr20    Zr   0.97040   0.50216   0.85103   1.000
    Zr21    Zr   0.00523   0.37452   0.88771   1.000
    Zr22    Zr   0.85115   0.97011   0.50276   1.000
    Zr23    Zr   0.88694   0.00575   0.37544   1.000
    Zr24    Zr   0.14899   0.49744   0.03015   1.000
    Zr25    Zr   0.11266   0.62518   0.99519   1.000
    Zr26    Zr   0.49712   0.02951   0.14876   1.000
    Zr27    Zr   0.62451   0.99428   0.11305   1.000
    Zr28    Zr   0.02973   0.14914   0.49850   1.000
    Zr29    Zr   0.99521   0.11222   0.62579   1.000
    Zr30    Zr   0.49820   0.14910   0.02975   1.000
    Zr31    Zr   0.62561   0.11262   0.99545   1.000
    Zr32    Zr   0.02971   0.49783   0.14894   1.000
    Zr33    Zr   0.99457   0.62534   0.11221   1.000
    Zr34    Zr   0.14882   0.02980   0.49700   1.000
    Zr35    Zr   0.11306   0.99429   0.62447   1.000
    Zr36    Zr   0.85096   0.50238   0.96966   1.000
    Zr37    Zr   0.88735   0.37478   0.00493   1.000
    Zr38    Zr   0.50281   0.97044   0.85118   1.000
    Zr39    Zr   0.37538   0.00561   0.88686   1.000
    Zr40    Zr   0.97031   0.85080   0.50146   1.000
    Zr41    Zr   0.00469   0.88769   0.37413   1.000
    O42     O    0.40308   0.95360   0.01195   1.000
    O43     O    0.39876   0.85921   0.99618   1.000
    O44     O    0.95358   0.40328   0.01247   1.000
    O45     O    0.85929   0.39931   0.99638   1.000
    O46     O    0.53747   0.15897   0.02091   1.000
    O47     O    0.60118   0.14073   0.00376   1.000
    O48     O    0.15887   0.53676   0.02116   1.000
    O49     O    0.14071   0.60063   0.00368   1.000
    O50     O    0.46502   0.08450   0.02458   1.000
    O51     O    0.46448   0.02470   0.08409   1.000
    O52     O    0.40361   0.01275   0.95314   1.000
    O53     O    0.08440   0.46461   0.02507   1.000
    O54     O    0.02476   0.46480   0.08447   1.000
    O55     O    0.01252   0.40315   0.95385   1.000
    O56     O    0.00308   0.60084   0.14034   1.000
    O57     O    0.98737   0.59674   0.04608   1.000
    O58     O    0.60005   0.00284   0.14097   1.000
    O59     O    0.59629   0.98716   0.04678   1.000
    O60     O    0.53635   0.02045   0.15882   1.000
    O61     O    0.02065   0.53709   0.15870   1.000
    O62     O    0.99641   0.85950   0.39856   1.000
    O63     O    0.01208   0.95391   0.40301   1.000
    O64     O    0.85901   0.99712   0.39991   1.000
    O65     O    0.95321   0.01294   0.40366   1.000
    O66     O    0.97922   0.84105   0.46222   1.000
    O67     O    0.84112   0.97930   0.46356   1.000
    O68     O    0.08415   0.02497   0.46444   1.000
    O69     O    0.02460   0.08464   0.46519   1.000
    O70     O    0.15886   0.02066   0.53626   1.000
    O71     O    0.02080   0.15888   0.53773   1.000
    O72     O    0.97540   0.91530   0.53474   1.000
    O73     O    0.91582   0.97495   0.53539   1.000
    O74     O    0.04678   0.98704   0.59624   1.000
    O75     O    0.98785   0.04601   0.59691   1.000
    O76     O    0.14098   0.00291   0.60000   1.000
    O77     O    0.00354   0.14042   0.60138   1.000
    O78     O    0.46357   0.97949   0.84111   1.000
    O79     O    0.39986   0.99707   0.85895   1.000
    O80     O    0.97939   0.46287   0.84125   1.000
    O81     O    0.99681   0.39905   0.85959   1.000
    O82     O    0.97528   0.53515   0.91549   1.000
    O83     O    0.53544   0.97524   0.91584   1.000
    O84     O    0.91556   0.53526   0.97480   1.000
    O85     O    0.84110   0.46311   0.97874   1.000
    O86     O    0.53490   0.91543   0.97532   1.000
    O87     O    0.46246   0.84096   0.97901   1.000
    O88     O    0.04642   0.59666   0.98757   1.000
    O89     O    0.59684   0.04632   0.98797   1.000
    O90     O    0.49996   0.99996   0.99996   1.000
    O91     O    0.99999   0.49996   0.99997   1.000
    O92     O    0.99998   0.99997   0.49996   1.000
    N93     N    0.37881   0.62059   0.00009   1.000
    O94     O    0.39191   0.70151   0.99505   1.000
    O95     O    0.29807   0.60743   0.00508   1.000
    N96     N    0.64380   0.99996   0.35622   1.000
    O97     O    0.61881   0.00468   0.28689   1.000
    O98     O    0.71311   0.99522   0.38118   1.000
    N99     N    0.35618   0.00005   0.64372   1.000
    O100    O    0.38114   0.99529   0.71304   1.000
    O101    O    0.28688   0.00479   0.61874   1.000
    O102    O    0.54972   0.99999   0.45030   1.000
    N103    N    0.63258   0.36791   0.99990   1.000
    O104    O    0.70762   0.38679   0.99491   1.000
    O105    O    0.61375   0.29271   0.00491   1.000
    N106    N    0.99994   0.64411   0.35532   1.000
    O107    O    0.99509   0.71339   0.38007   1.000
    O108    O    0.00474   0.61931   0.28618   1.000
    N109    N    0.00007   0.35582   0.64462   1.000
    O110    O    0.99526   0.38062   0.71377   1.000
    O111    O    0.00492   0.28654   0.61988   1.000
    O112    O    0.00001   0.45016   0.55001   1.000
    N113    N    0.25132   0.74823   0.50000   1.000
    N114    N    0.29688   0.70266   0.60000   1.000
    N115    N    0.47428   0.52531   0.60000   1.000
loop_
    _geom_bond_atom_site_label_1
    _geom_bond_atom_site_label_2
    _geom_bond_distance
    _geom_bond_site_symmetry_2
    _ccdc_geom_bond_type
    Zr19   O42       0.98732      .   S
    Zr4    O42       0.98732  1_545   S
    Zr19   O43       0.63903  1_554   S
    Zr6    O43       0.63903      .   S
    Zr37   O44       0.98686      .   S
    Zr3    O44       0.98686  1_455   S
    Zr37   O45       0.63916  1_554   S
    Zr15   O45       0.63916      .   S
    Zr12   O46       0.63983      .   S
    Zr30   O46       0.63983      .   S
    Zr12   O47       0.63903      .   S
    Zr31   O47       0.63903  1_556   S
    Zr9    O48       0.63980      .   S
    Zr24   O48       0.63980      .   S
    Zr9    O49       0.63915      .   S
    Zr25   O49       0.63915  1_556   S
    Zr4    O50       0.98857      .   S
    Zr30   O50       0.98857      .   S
    Zr4    O51       0.98827      .   S
    Zr26   O51       0.98827      .   S
    Zr4    O52       0.98672  1_554   S
    Zr39   O52       0.98672      .   S
    Zr3    O53       0.98865      .   S
    Zr24   O53       0.98865      .   S
    Zr3    O54       0.98906      .   S
    Zr32   O54       0.98906      .   S
    Zr3    O55       0.98745  1_554   S
    Zr21   O55       0.98745      .   S
    Zr33   O56       0.63907  1_655   S
    Zr13   O56       0.63907      .   S
    Zr33   O57       0.98742      .   S
    Zr1    O57       0.98742  1_556   S
    Zr27   O58       0.63912  1_565   S
    Zr10   O58       0.63912      .   S
    Zr27   O59       0.98666      .   S
    Zr0    O59       0.98666  1_556   S
    Zr26   O60       0.63981      .   S
    Zr10   O60       0.63981      .   S
    Zr32   O61       0.63985      .   S
    Zr13   O61       0.63985      .   S
    Zr41   O62       0.63902  1_455   S
    Zr17   O62       0.63902      .   S
    Zr41   O63       0.98768      .   S
    Zr5    O63       0.98768  1_545   S
    Zr23   O64       0.63907  1_545   S
    Zr8    O64       0.63907      .   S
    Zr23   O65       0.98651      .   S
    Zr5    O65       0.98651  1_455   S
    Zr17   O66       0.63984      .   S
    Zr40   O66       0.63984      .   S
    Zr8    O67       0.63982      .   S
    Zr22   O67       0.63982      .   S
    Zr5    O68       0.98803      .   S
    Zr34   O68       0.98803      .   S
    Zr5    O69       0.98881      .   S
    Zr28   O69       0.98881      .   S
    Zr34   O70       0.64045      .   S
    Zr14   O70       0.64045      .   S
    Zr28   O71       0.64004      .   S
    Zr11   O71       0.64004      .   S
    Zr40   O72       0.98882      .   S
    Zr2    O72       0.98882      .   S
    Zr22   O73       0.98829      .   S
    Zr2    O73       0.98829      .   S
    Zr2    O74       0.98653  1_655   S
    Zr35   O74       0.98653      .   S
    Zr2    O75       0.98763  1_565   S
    Zr29   O75       0.98763      .   S
    Zr14   O76       0.63909      .   S
    Zr35   O76       0.63909  1_565   S
    Zr11   O77       0.63899      .   S
    Zr29   O77       0.63899  1_655   S
    Zr16   O78       0.63981      .   S
    Zr38   O78       0.63981      .   S
    Zr16   O79       0.63908      .   S
    Zr39   O79       0.63908  1_545   S
    Zr7    O80       0.63985      .   S
    Zr20   O80       0.63985      .   S
    Zr7    O81       0.63906      .   S
    Zr21   O81       0.63906  1_455   S
    Zr20   O82       0.98902      .   S
    Zr1    O82       0.98902      .   S
    Zr38   O83       0.98817      .   S
    Zr0    O83       0.98817      .   S
    Zr36   O84       0.98870      .   S
    Zr1    O84       0.98870      .   S
    Zr36   O85       0.63978      .   S
    Zr15   O85       0.63978      .   S
    Zr18   O86       0.98853      .   S
    Zr0    O86       0.98853      .   S
    Zr18   O87       0.63982      .   S
    Zr6    O87       0.63982      .   S
    Zr1    O88       0.98695  1_655   S
    Zr25   O88       0.98695      .   S
    Zr0    O89       0.98732  1_565   S
    Zr31   O89       0.98732      .   S
    Zr0    O90       1.22767      .   S
    Zr4    O90       1.22767  1_544   S
    Zr1    O91       1.22719      .   S
    Zr3    O91       1.22719  1_454   S
    Zr2    O92       1.22745      .   S
    Zr5    O92       1.22745  1_445   S
    N93    O94       1.23334  1_554   S
    Zr6    O94       1.97091      .   S
    N93    O95       1.23346      .   S
    Zr9    O95       1.97127      .   S
    N96    O97       1.07198  1_565   S
    Zr10   O97       1.81941      .   S
    N96    O98       1.07207      .   S
    Zr8    O98       1.81958      .   S
    N99    O100      1.07203  1_545   S
    Zr16   O100      1.81951      .   S
    N99    O101      1.07205      .   S
    Zr14   O101      1.81957      .   S
    N99    O102      4.63083  1_545   S
    N96    O102      2.25162      .   S
    N103   O104      1.14887      .   S
    Zr15   O104      1.89347      .   S
    N103   O105      1.14860  1_556   S
    Zr12   O105      1.89308      .   S
    N106   O107      1.07223      .   S
    Zr17   O107      1.82000      .   S
    N106   O108      1.07205  1_655   S
    Zr13   O108      1.81981      .   S
    N109   O110      1.07215  1_455   S
    Zr7    O110      1.82000      .   S
    N109   O111      1.07220      .   S
    Zr11   O111      1.81995      .   S
    N106   O112      4.63355  1_655   S
    N109   O112      2.25290      .   S
