# CIF file generated by openbabel 2.4.90, see http://openbabel.sf.net
data_I
_chemical_name_common ''
_cell_length_a 12.119
_cell_length_b 14.542
_cell_length_c 15.229
_cell_angle_alpha 90.002
_cell_angle_beta 90.035
_cell_angle_gamma 90.592
_space_group_name_H-M_alt 'P 1'
_space_group_name_Hall 'P 1'
loop_
    _symmetry_equiv_pos_as_xyz
    x,y,z
loop_
    _atom_site_label
    _atom_site_type_symbol
    _atom_site_fract_x
    _atom_site_fract_y
    _atom_site_fract_z
    _atom_site_occupancy
    Lv0     Lv   0.54199   0.92145   0.65441   1.000
    Lv1     Lv   0.79176   0.57684   0.33796   1.000
    Lv2     Lv   0.29170   0.57678   0.33795   1.000
    Lv3     Lv   0.21267   0.07867   0.15451   1.000
    Lv4     Lv   0.04730   0.92144   0.65443   1.000
    Lv5     Lv   0.71276   0.07862   0.15451   1.000
    Lv6     Lv   0.46314   0.42333   0.83801   1.000
    Lv7     Lv   0.96302   0.42328   0.83806   1.000
