# CIF file generated by openbabel 2.4.90, see http://openbabel.sf.net
data_I
_chemical_name_common ''
_cell_length_a 12.119
_cell_length_b 14.542
_cell_length_c 15.229
_cell_angle_alpha 90.002
_cell_angle_beta 90.035
_cell_angle_gamma 90.592
_space_group_name_H-M_alt 'P 1'
_space_group_name_Hall 'P 1'
loop_
    _symmetry_equiv_pos_as_xyz
    x,y,z
loop_
    _atom_site_label
    _atom_site_type_symbol
    _atom_site_fract_x
    _atom_site_fract_y
    _atom_site_fract_z
    _atom_site_occupancy
    H0      H    0.54115   0.75073   0.72633   1.000
    H1      H    0.04098   0.75074   0.72638   1.000
    H2      H    0.48243   0.70241   0.57752   1.000
    H3      H    0.00000   0.70241   0.57761   1.000
    H4      H    0.45830   0.81916   0.45966   1.000
    H5      H    0.00000   0.81913   0.45972   1.000
    H6      H    0.49213   0.98397   0.49054   1.000
    H7      H    0.00000   0.98394   0.49055   1.000
    H8      H    0.62328   0.15376   0.74199   1.000
    H9      H    0.12331   0.15375   0.74194   1.000
    H10     H    0.62505   0.03950   0.86394   1.000
    H11     H    0.12510   0.03951   0.86391   1.000
    H12     H    0.71344   0.24930   0.22651   1.000
    H13     H    0.21331   0.24934   0.22652   1.000
    H14     H    0.77238   0.29770   0.07785   1.000
    H15     H    0.27218   0.29777   0.07786   1.000
    H16     H    0.79683   0.18101   0.95998   1.000
    H17     H    0.29665   0.18110   0.95997   1.000
    H18     H    0.76296   0.01618   0.99069   1.000
    H19     H    0.26286   0.01625   0.99068   1.000
    H20     H    0.63132   0.84627   0.24182   1.000
    H21     H    0.13131   0.84630   0.24181   1.000
    H22     H    0.62937   0.96047   0.36381   1.000
    H23     H    0.12936   0.96048   0.36381   1.000
    H24     H    0.96764   0.25281   0.76589   1.000
    H25     H    0.46777   0.25287   0.76583   1.000
    H26     H    0.02538   0.20586   0.91506   1.000
    H27     H    0.52562   0.20593   0.91498   1.000
    H28     H    0.04590   0.32303   0.03332   1.000
    H29     H    0.54613   0.32309   0.03324   1.000
    H30     H    0.01001   0.48689   0.00245   1.000
    H31     H    0.51018   0.48693   0.00240   1.000
    H32     H    0.87943   0.65344   0.75002   1.000
    H33     H    0.37946   0.65349   0.75000   1.000
    H34     H    0.87975   0.53910   0.62817   1.000
    H35     H    0.37978   0.53915   0.62814   1.000
    H36     H    0.78751   0.74726   0.26573   1.000
    H37     H    0.28740   0.74722   0.26574   1.000
    H38     H    0.72962   0.79435   0.41476   1.000
    H39     H    0.22945   0.79427   0.41477   1.000
    H40     H    0.70864   0.67726   0.53299   1.000
    H41     H    0.20849   0.67715   0.53298   1.000
    H42     H    0.74436   0.51334   0.50227   1.000
    H43     H    0.24428   0.51325   0.50224   1.000
    H44     H    0.87532   0.34659   0.25018   1.000
    H45     H    0.37539   0.34657   0.25015   1.000
    H46     H    0.87515   0.46085   0.12827   1.000
    H47     H    0.37522   0.46085   0.12826   1.000
    C48     C    0.57928   0.92588   0.78173   1.000
    C49     C    0.07925   0.92589   0.78173   1.000
    C50     C    0.54991   0.89580   0.69527   1.000
    C51     C    0.04983   0.89580   0.69529   1.000
    C52     C    0.52928   0.80172   0.67507   1.000
    C53     C    0.02912   0.80172   0.67511   1.000
    C54     C    0.49739   0.77494   0.59196   1.000
    C55     C    0.00000   0.77493   0.59202   1.000
    C56     C    0.48423   0.84114   0.52502   1.000
    C57     C    0.00000   0.84113   0.52507   1.000
    C58     C    0.50366   0.93309   0.54195   1.000
    C59     C    0.00353   0.93307   0.54197   1.000
    C60     C    0.53746   0.96344   0.62666   1.000
    C61     C    0.03738   0.96344   0.62666   1.000
    C62     C    0.56412   0.05764   0.64600   1.000
    C63     C    0.06410   0.05763   0.64598   1.000
    C64     C    0.60055   0.08232   0.72934   1.000
    C65     C    0.10055   0.08231   0.72931   1.000
    C66     C    0.60364   0.01764   0.79760   1.000
    C67     C    0.10366   0.01765   0.79758   1.000
    C68     C    0.67527   0.07412   0.28174   1.000
    C69     C    0.17523   0.07415   0.28175   1.000
    C70     C    0.70478   0.10424   0.19536   1.000
    C71     C    0.20469   0.10428   0.19536   1.000
    C72     C    0.72541   0.19834   0.17524   1.000
    C73     C    0.22528   0.19838   0.17525   1.000
    C74     C    0.75745   0.22517   0.09222   1.000
    C75     C    0.25728   0.22523   0.09222   1.000
    C76     C    0.77076   0.15899   0.02528   1.000
    C77     C    0.27061   0.15906   0.02528   1.000
    C78     C    0.75132   0.06703   0.04213   1.000
    C79     C    0.25120   0.06710   0.04212   1.000
    C80     C    0.71732   0.03663   0.12673   1.000
    C81     C    0.21726   0.03668   0.12673   1.000
    C82     C    0.69062   0.94243   0.14598   1.000
    C83     C    0.19058   0.94247   0.14597   1.000
    C84     C    0.65406   0.91772   0.22924   1.000
    C85     C    0.15404   0.91775   0.22924   1.000
    C86     C    0.65088   0.98236   0.29753   1.000
    C87     C    0.15085   0.98238   0.29753   1.000
    C88     C    0.92672   0.42673   0.71058   1.000
    C89     C    0.42678   0.42678   0.71054   1.000
    C90     C    0.95601   0.39753   0.79716   1.000
    C91     C    0.45609   0.39758   0.79712   1.000
    C92     C    0.97799   0.30402   0.81734   1.000
    C93     C    0.47815   0.30408   0.81728   1.000
    C94     C    0.00939   0.27797   0.90062   1.000
    C95     C    0.50957   0.27803   0.90055   1.000
    C96     C    0.02056   0.34441   0.96775   1.000
    C97     C    0.52077   0.34447   0.96768   1.000
    C98     C    0.99994   0.43584   0.95081   1.000
    C99     C    0.50007   0.43589   0.95076   1.000
    C100    C    0.96666   0.46543   0.86592   1.000
    C101    C    0.46679   0.46548   0.86587   1.000
    C102    C    0.93885   0.55895   0.84642   1.000
    C103    C    0.43888   0.55899   0.84639   1.000
    C104    C    0.90290   0.58260   0.76283   1.000
    C105    C    0.40296   0.58265   0.76280   1.000
    C106    C    0.90117   0.51782   0.69457   1.000
    C107    C    0.40121   0.51787   0.69454   1.000
    C108    C    0.82815   0.57328   0.21055   1.000
    C109    C    0.32813   0.57326   0.21055   1.000
    C110    C    0.79885   0.60254   0.29708   1.000
    C111    C    0.29879   0.60250   0.29707   1.000
    C112    C    0.77696   0.69608   0.31717   1.000
    C113    C    0.27686   0.69603   0.31717   1.000
    C114    C    0.74551   0.72222   0.40038   1.000
    C115    C    0.24537   0.72214   0.40038   1.000
    C116    C    0.73408   0.65581   0.46751   1.000
    C117    C    0.23395   0.65572   0.46749   1.000
    C118    C    0.75462   0.56436   0.45065   1.000
    C119    C    0.25454   0.56428   0.45063   1.000
    C120    C    0.78801   0.53468   0.36584   1.000
    C121    C    0.28795   0.53463   0.36582   1.000
    C122    C    0.81581   0.44114   0.34643   1.000
    C123    C    0.31581   0.44109   0.34641   1.000
    C124    C    0.85186   0.41744   0.26292   1.000
    C125    C    0.35189   0.41742   0.26290   1.000
    C126    C    0.85368   0.48218   0.19462   1.000
    C127    C    0.35372   0.48217   0.19461   1.000
loop_
    _geom_bond_atom_site_label_1
    _geom_bond_atom_site_label_2
    _geom_bond_distance
    _geom_bond_site_symmetry_2
    _ccdc_geom_bond_type
    H31    C99       1.08740  1_554   S
    H30    C98       1.08740  1_454   S
    C77    C79       1.37953      .   S
    C77    C75       1.41232      .   S
    C77    H17       1.09074  1_554   S
    C76    C78       1.37953      .   S
    C76    C74       1.41231      .   S
    C76    H16       1.09075  1_554   S
    H29    C97       1.09073  1_554   S
    H28    C96       1.09074  1_554   S
    C79    C81       1.42211      .   S
    C79    H19       1.08749  1_554   S
    C78    C80       1.42210      .   S
    C78    H18       1.08748  1_554   S
    H14    C74       1.09064      .   S
    H15    C75       1.09063      .   S
    C74    C72       1.37809      .   S
    C75    C73       1.37809      .   S
    C81    C83       1.43466  1_545   S
    C81    C71       1.44398      .   S
    C80    C82       1.43465  1_545   S
    C80    C70       1.44400      .   S
    H47    C127      1.08947      .   S
    H46    C126      1.08946      .   S
    C83    C85       1.38947      .   S
    C82    C84       1.38948      .   S
    C72    C70       1.42192      .   S
    C72    H12       1.08721      .   S
    C73    C71       1.42193      .   S
    C73    H13       1.08720      .   S
    C127   C109      1.38504      .   S
    C127   C125      1.40293      .   S
    C126   C108      1.38501      .   S
    C126   C124      1.40291      .   S
    C70    C68       1.43099      .   S
    C71    C69       1.43099      .   S
    C109   C111      1.43086      .   S
    C108   C110      1.43085      .   S
    C85    H21       1.08916      .   S
    C85    C87       1.40259      .   S
    C84    H20       1.08915      .   S
    C84    C86       1.40260      .   S
    H45    C125      1.08916      .   S
    H44    C124      1.08916      .   S
    C125   C123      1.38959      .   S
    C124   C122      1.38959      .   S
    H36    C112      1.08730      .   S
    H37    C113      1.08729      .   S
    C68    C86       1.38485  1_545   S
    C69    C87       1.38484  1_545   S
    C111   C113      1.42189      .   S
    C111   C121      1.44394      .   S
    C110   C112      1.42189      .   S
    C110   C120      1.44397      .   S
    C87    H23       1.08943      .   S
    C86    H22       1.08942      .   S
    C112   C114      1.37805      .   S
    C113   C115      1.37806      .   S
    C123   C121      1.43557      .   S
    C122   C120      1.43556      .   S
    C121   C119      1.42213      .   S
    C120   C118      1.42213      .   S
    C114   H38       1.09064      .   S
    C114   C116      1.41225      .   S
    C115   H39       1.09065      .   S
    C115   C117      1.41225      .   S
    C119   C117      1.37964      .   S
    C119   H43       1.08721      .   S
    C118   C116      1.37965      .   S
    C118   H42       1.08723      .   S
    H4     C56       1.09048      .   S
    H5     C57       1.04527      .   S
    C117   H41       1.09047      .   S
    C116   H40       1.09048      .   S
    H6     C58       1.08728      .   S
    H7     C59       1.07848      .   S
    C56    C58       1.37949      .   S
    C56    C54       1.41231      .   S
    C57    C59       1.36179      .   S
    C57    C55       1.40223      .   S
    C58    C60       1.42210      .   S
    C59    C61       1.42211      .   S
    H2     C54       1.09064      .   S
    H3     C55       1.07721      .   S
    C54    C52       1.37815      .   S
    C55    C53       1.36905      .   S
    C60    C62       1.43462  1_565   S
    C60    C50       1.44397      .   S
    C61    C63       1.43462  1_565   S
    C61    C51       1.44397      .   S
    H35    C107      1.08946      .   S
    H34    C106      1.08944      .   S
    C63    C65       1.38948      .   S
    C62    C64       1.38946      .   S
    C52    C50       1.42193      .   S
    C52    H0        1.08718      .   S
    C53    C51       1.42192      .   S
    C53    H1        1.08719      .   S
    C107   C89       1.38504      .   S
    C107   C105      1.40296      .   S
    C106   C88       1.38504      .   S
    C106   C104      1.40292      .   S
    C50    C48       1.43104      .   S
    C51    C49       1.43103      .   S
    C89    C91       1.43088      .   S
    C88    C90       1.43090      .   S
    C65    H9        1.08916      .   S
    C65    C67       1.40260      .   S
    C64    H8        1.08917      .   S
    C64    C66       1.40261      .   S
    H33    C105      1.08916      .   S
    H32    C104      1.08915      .   S
    C105   C103      1.38953      .   S
    C104   C102      1.38953      .   S
    H25    C93       1.08729      .   S
    H24    C92       1.08731      .   S
    C49    C67       1.38486  1_565   S
    C48    C66       1.38487  1_565   S
    C91    C93       1.42189      .   S
    C91    C101      1.44392      .   S
    C90    C92       1.42191      .   S
    C90    C100      1.44394      .   S
    C67    H11       1.08945      .   S
    C66    H10       1.08943      .   S
    C93    C95       1.37808      .   S
    C92    C94       1.37808  1_655   S
    C103   C101      1.43551      .   S
    C102   C100      1.43550      .   S
    C101   C99       1.42212      .   S
    C100   C98       1.42213      .   S
    C95    H27       1.09065      .   S
    C95    C97       1.41227      .   S
    C94    H26       1.09065      .   S
    C94    C96       1.41227      .   S
    C99    C97       1.37959      .   S
    C98    C96       1.37961  1_655   S
