# CIF file generated by openbabel 2.4.90, see http://openbabel.sf.net
data_I
_chemical_name_common ''
_cell_length_a 12.119
_cell_length_b 14.542
_cell_length_c 15.229
_cell_angle_alpha 90.002
_cell_angle_beta 90.035
_cell_angle_gamma 90.592
_space_group_name_H-M_alt 'P 1'
_space_group_name_Hall 'P 1'
loop_
    _symmetry_equiv_pos_as_xyz
    x,y,z
loop_
    _atom_site_label
    _atom_site_type_symbol
    _atom_site_fract_x
    _atom_site_fract_y
    _atom_site_fract_z
    _atom_site_occupancy
    C0      C    0.58215   0.86122   0.85902   1.000
    C1      C    0.08214   0.86124   0.85903   1.000
    C2      C    0.55139   0.13353   0.58142   1.000
    C3      C    0.05137   0.13352   0.58140   1.000
    C4      C    0.67241   0.13877   0.35905   1.000
    C5      C    0.17238   0.13878   0.35906   1.000
    C6      C    0.70334   0.86654   0.08140   1.000
    C7      C    0.20333   0.86658   0.08139   1.000
    C8      C    0.92458   0.36156   0.63357   1.000
    C9      C    0.42458   0.36159   0.63354   1.000
    C10     C    0.94997   0.63520   0.91100   1.000
    C11     C    0.44998   0.63523   0.91098   1.000
    C12     C    0.83024   0.63842   0.13352   1.000
    C13     C    0.33022   0.63842   0.13353   1.000
    C14     C    0.80463   0.36489   0.41100   1.000
    C15     C    0.30463   0.36485   0.41098   1.000
    O16     O    0.63909   0.78837   0.85159   1.000
    O17     O    0.13908   0.78838   0.85159   1.000
    O18     O    0.52761   0.88702   0.92598   1.000
    O19     O    0.02759   0.88703   0.92598   1.000
    O20     O    0.97230   0.13350   0.52606   1.000
    O21     O    0.47230   0.13351   0.52608   1.000
    O22     O    0.62093   0.20145   0.58460   1.000
    O23     O    0.12091   0.20144   0.58459   1.000
    O24     O    0.61546   0.21162   0.35161   1.000
    O25     O    0.11543   0.21163   0.35162   1.000
    O26     O    0.72701   0.11296   0.42602   1.000
    O27     O    0.22699   0.11297   0.42603   1.000
    O28     O    0.78239   0.86656   0.02610   1.000
    O29     O    0.28239   0.86660   0.02611   1.000
    O30     O    0.63383   0.79861   0.08456   1.000
    O31     O    0.13381   0.79865   0.08455   1.000
    O32     O    0.86614   0.28851   0.64095   1.000
    O33     O    0.36613   0.28855   0.64094   1.000
    O34     O    0.98087   0.38708   0.56714   1.000
    O35     O    0.48088   0.38709   0.56710   1.000
    O36     O    0.52807   0.63686   0.96733   1.000
    O37     O    0.02807   0.63684   0.96732   1.000
    O38     O    0.88064   0.70193   0.90715   1.000
    O39     O    0.38063   0.70194   0.90714   1.000
    O40     O    0.88866   0.71149   0.14091   1.000
    O41     O    0.38863   0.71149   0.14092   1.000
    O42     O    0.77385   0.61288   0.06709   1.000
    O43     O    0.27382   0.61288   0.06709   1.000
    O44     O    0.72654   0.36325   0.46727   1.000
    O45     O    0.22655   0.36323   0.46725   1.000
    O46     O    0.87393   0.29813   0.40718   1.000
    O47     O    0.37393   0.29809   0.40716   1.000
loop_
    _geom_bond_atom_site_label_1
    _geom_bond_atom_site_label_2
    _geom_bond_distance
    _geom_bond_site_symmetry_2
    _ccdc_geom_bond_type
    O28    C6        1.27586      .   S
    O29    C7        1.27584      .   S
    O42    C12       1.27372      .   S
    O43    C13       1.27374      .   S
    C7     O31       1.29260      .   S
    C6     O30       1.29259      .   S
    C12    O40       1.27563      .   S
    C13    O41       1.27561      .   S
    O24    C4        1.27536      .   S
    O25    C5        1.27537      .   S
    C4     O26       1.27405      .   S
    C5     O27       1.27404      .   S
    O47    C15       1.29152      .   S
    O46    C14       1.29152      .   S
    C15    O45       1.27718      .   S
    C14    O44       1.27716      .   S
    O20    C3        1.27570  1_655   S
    O21    C2        1.27589      .   S
    O35    C9        1.27370      .   S
    O34    C8        1.27371      .   S
    C3     O23       1.29256      .   S
    C2     O22       1.29255      .   S
    C9     O33       1.27569      .   S
    C8     O32       1.27566      .   S
    O16    C0        1.27540      .   S
    O17    C1        1.27540      .   S
    C0     O18       1.27404      .   S
    C1     O19       1.27404      .   S
    O39    C11       1.29148      .   S
    O38    C10       1.29149      .   S
    C11    O36       1.27721      .   S
    C10    O37       1.27701  1_655   S
