# CIF file generated by openbabel 2.4.90, see http://openbabel.sf.net
data_I
_chemical_name_common ''
_cell_length_a 12.119
_cell_length_b 14.542
_cell_length_c 15.229
_cell_angle_alpha 90.002
_cell_angle_beta 90.035
_cell_angle_gamma 90.592
_space_group_name_H-M_alt 'P 1'
_space_group_name_Hall 'P 1'
loop_
    _symmetry_equiv_pos_as_xyz
    x,y,z
loop_
    _atom_site_label
    _atom_site_type_symbol
    _atom_site_fract_x
    _atom_site_fract_y
    _atom_site_fract_z
    _atom_site_occupancy
    Cd0     Cd   0.20290   0.70806   0.96598   1.000
    Cd1     Cd   0.55174   0.29197   0.46598   1.000
    Cd2     Cd   0.05172   0.29199   0.46599   1.000
    Cd3     Cd   0.80081   0.20751   0.52699   1.000
    Cd4     Cd   0.30079   0.20751   0.52700   1.000
    Cd5     Cd   0.95389   0.79255   0.02700   1.000
    Cd6     Cd   0.45388   0.79255   0.02701   1.000
    Cd7     Cd   0.70291   0.70804   0.96598   1.000
    C8      C    0.58215   0.86122   0.85902   1.000
    C9      C    0.08214   0.86124   0.85903   1.000
    C10     C    0.55139   0.13353   0.58142   1.000
    C11     C    0.05137   0.13352   0.58140   1.000
    C12     C    0.67241   0.13877   0.35905   1.000
    C13     C    0.17238   0.13878   0.35906   1.000
    C14     C    0.70334   0.86654   0.08140   1.000
    C15     C    0.20333   0.86658   0.08139   1.000
    C16     C    0.92458   0.36156   0.63357   1.000
    C17     C    0.42458   0.36159   0.63354   1.000
    C18     C    0.94997   0.63520   0.91100   1.000
    C19     C    0.44998   0.63523   0.91098   1.000
    C20     C    0.83024   0.63842   0.13352   1.000
    C21     C    0.33022   0.63842   0.13353   1.000
    C22     C    0.80463   0.36489   0.41100   1.000
    C23     C    0.30463   0.36485   0.41098   1.000
    O24     O    0.63909   0.78837   0.85159   1.000
    O25     O    0.13908   0.78838   0.85159   1.000
    O26     O    0.52761   0.88702   0.92598   1.000
    O27     O    0.02759   0.88703   0.92598   1.000
    O28     O    0.97230   0.13350   0.52606   1.000
    O29     O    0.47230   0.13351   0.52608   1.000
    O30     O    0.62093   0.20145   0.58460   1.000
    O31     O    0.12091   0.20144   0.58459   1.000
    O32     O    0.61546   0.21162   0.35161   1.000
    O33     O    0.11543   0.21163   0.35162   1.000
    O34     O    0.72701   0.11296   0.42602   1.000
    O35     O    0.22699   0.11297   0.42603   1.000
    O36     O    0.78239   0.86656   0.02610   1.000
    O37     O    0.28239   0.86660   0.02611   1.000
    O38     O    0.63383   0.79861   0.08456   1.000
    O39     O    0.13381   0.79865   0.08455   1.000
    O40     O    0.86614   0.28851   0.64095   1.000
    O41     O    0.36613   0.28855   0.64094   1.000
    O42     O    0.98087   0.38708   0.56714   1.000
    O43     O    0.48088   0.38709   0.56710   1.000
    O44     O    0.52807   0.63686   0.96733   1.000
    O45     O    0.02807   0.63684   0.96732   1.000
    O46     O    0.88064   0.70193   0.90715   1.000
    O47     O    0.38063   0.70194   0.90714   1.000
    O48     O    0.88866   0.71149   0.14091   1.000
    O49     O    0.38863   0.71149   0.14092   1.000
    O50     O    0.77385   0.61288   0.06709   1.000
    O51     O    0.27382   0.61288   0.06709   1.000
    O52     O    0.72654   0.36325   0.46727   1.000
    O53     O    0.22655   0.36323   0.46725   1.000
    O54     O    0.87393   0.29813   0.40718   1.000
    O55     O    0.37393   0.29809   0.40716   1.000
loop_
    _geom_bond_atom_site_label_1
    _geom_bond_atom_site_label_2
    _geom_bond_distance
    _geom_bond_site_symmetry_2
    _ccdc_geom_bond_type
    O36    Cd5       2.35039      .   S
    O36    C14       1.27586      .   S
    O37    Cd6       2.35053      .   S
    O37    C15       1.27584      .   S
    Cd5    O39       2.35044  1_655   S
    Cd5    O48       2.23756      .   S
    Cd5    O27       2.24242  1_654   S
    Cd6    O38       2.35071      .   S
    Cd6    O49       2.23764      .   S
    Cd6    O26       2.24258  1_554   S
    O50    C20       1.27372      .   S
    O50    Cd7       2.24696  1_554   S
    O51    C21       1.27374      .   S
    O51    Cd0       2.24692  1_554   S
    C15    O39       1.29260      .   S
    C14    O38       1.29259      .   S
    C20    O48       1.27563      .   S
    C21    O49       1.27561      .   S
    O32    C12       1.27536      .   S
    O32    Cd1       2.23954      .   S
    O33    C13       1.27537      .   S
    O33    Cd2       2.23950      .   S
    C12    O34       1.27405      .   S
    C13    O35       1.27404      .   S
    O55    C23       1.29152      .   S
    O55    Cd1       2.33562      .   S
    O54    C22       1.29152      .   S
    O54    Cd2       2.33545  1_655   S
    C23    O53       1.27718      .   S
    C22    O52       1.27716      .   S
    O34    Cd3       2.24211      .   S
    O35    Cd4       2.24221      .   S
    Cd1    O52       2.34891      .   S
    Cd1    O43       2.24687      .   S
    Cd2    O53       2.34888      .   S
    Cd2    O42       2.24682  1_455   S
    O28    Cd3       2.35034      .   S
    O28    C11       1.27570  1_655   S
    O29    Cd4       2.35042      .   S
    O29    C10       1.27589      .   S
    Cd3    O30       2.35109      .   S
    Cd3    O40       2.23722      .   S
    Cd4    O31       2.35105      .   S
    Cd4    O41       2.23732      .   S
    O43    C17       1.27370      .   S
    O42    C16       1.27371      .   S
    C11    O31       1.29256      .   S
    C10    O30       1.29255      .   S
    C17    O41       1.27569      .   S
    C16    O40       1.27566      .   S
    O24    C8        1.27540      .   S
    O24    Cd7       2.23930      .   S
    O25    C9        1.27540      .   S
    O25    Cd0       2.23932      .   S
    C8     O26       1.27404      .   S
    C9     O27       1.27404      .   S
    O47    C19       1.29148      .   S
    O47    Cd0       2.33592      .   S
    O46    C18       1.29149      .   S
    O46    Cd7       2.33583      .   S
    C19    O44       1.27721      .   S
    C18    O45       1.27701  1_655   S
    Cd7    O44       2.34871      .   S
    Cd0    O45       2.34889      .   S
    O30    Cd1       2.39171      .   S
    O31    Cd2       2.39164      .   S
    O38    Cd7       2.39191  1_554   S
    O39    Cd0       2.39186  1_554   S
    O46    Cd5       2.41446  1_556   S
    O47    Cd6       2.41457  1_556   S
    O54    Cd3       2.41437      .   S
    O55    Cd4       2.41444      .   S
