# CIF file generated by openbabel 2.4.90, see http://openbabel.sf.net
data_I
_chemical_name_common ''
_cell_length_a 20.216
_cell_length_b 23.15
_cell_length_c 14.866
_cell_angle_alpha 91.111
_cell_angle_beta 89.98
_cell_angle_gamma 89.953
_space_group_name_H-M_alt 'P 1'
_space_group_name_Hall 'P 1'
loop_
    _symmetry_equiv_pos_as_xyz
    x,y,z
loop_
    _atom_site_label
    _atom_site_type_symbol
    _atom_site_fract_x
    _atom_site_fract_y
    _atom_site_fract_z
    _atom_site_occupancy
    Zr0     Zr   0.46404   0.37745   0.12962   1.000
    Zr1     Zr   0.46405   0.87746   0.12960   1.000
    Zr2     Zr   0.96403   0.37745   0.12962   1.000
    Zr3     Zr   0.96404   0.87746   0.12962   1.000
    Zr4     Zr   0.05869   0.37020   0.30880   1.000
    Zr5     Zr   0.05870   0.87021   0.30885   1.000
    Zr6     Zr   0.55868   0.37020   0.30885   1.000
    Zr7     Zr   0.55869   0.87021   0.30884   1.000
    Zr8     Zr   0.21402   0.37255   0.37048   1.000
    Zr9     Zr   0.21403   0.87256   0.37048   1.000
    Zr10    Zr   0.71401   0.37256   0.37048   1.000
    Zr11    Zr   0.71402   0.87256   0.37048   1.000
    Zr12    Zr   0.30868   0.37980   0.19121   1.000
    Zr13    Zr   0.30869   0.87981   0.19121   1.000
    Zr14    Zr   0.80867   0.37980   0.19121   1.000
    Zr15    Zr   0.80868   0.87981   0.19122   1.000
    Zr16    Zr   0.03595   0.12256   0.87034   1.000
    Zr17    Zr   0.03596   0.62257   0.87033   1.000
    Zr18    Zr   0.53594   0.12256   0.87034   1.000
    Zr19    Zr   0.53595   0.62257   0.87034   1.000
    Zr20    Zr   0.44130   0.12981   0.69111   1.000
    Zr21    Zr   0.44130   0.62982   0.69111   1.000
    Zr22    Zr   0.94129   0.12981   0.69111   1.000
    Zr23    Zr   0.94129   0.62982   0.69111   1.000
    Zr24    Zr   0.28597   0.12746   0.62948   1.000
    Zr25    Zr   0.28597   0.62746   0.62947   1.000
    Zr26    Zr   0.78596   0.12746   0.62948   1.000
    Zr27    Zr   0.78596   0.62747   0.62948   1.000
    Zr28    Zr   0.19131   0.12021   0.80874   1.000
    Zr29    Zr   0.19131   0.62022   0.80874   1.000
    Zr30    Zr   0.69130   0.12021   0.80875   1.000
    Zr31    Zr   0.69130   0.62022   0.80875   1.000
    Zr32    Zr   0.00000   0.25000   0.00000   1.000
    Zr33    Zr   0.00001   0.75001   0.99999   1.000
    Zr34    Zr   0.49999   0.25000   0.00000   1.000
    Zr35    Zr   0.50000   0.75001   0.00000   1.000
    Zr36    Zr   0.24999   0.00000   0.49997   1.000
    Zr37    Zr   0.25000   0.50001   0.49997   1.000
    Zr38    Zr   0.74998   0.00000   0.49997   1.000
    Zr39    Zr   0.74999   0.50001   0.49998   1.000
    Zr40    Zr   0.00000   0.00000   0.00000   1.000
    Zr41    Zr   0.00001   0.50001   0.99999   1.000
    Zr42    Zr   0.49999   1.00000   0.99999   1.000
    Zr43    Zr   0.49999   0.50001   0.00000   1.000
    Zr44    Zr   0.25000   0.25001   0.49998   1.000
    Zr45    Zr   0.25000   0.75001   0.49998   1.000
    Zr46    Zr   0.74998   0.25000   0.49998   1.000
    Zr47    Zr   0.74999   0.75001   0.49998   1.000
    N48     N    0.56667   0.97556   0.18140   1.000
    O49     O    0.53531   0.93837   0.17093   1.000
    O50     O    0.55897   0.93656   0.21574   1.000
    O51     O    0.54664   0.99038   0.12067   1.000
    N52     N    0.41975   0.91207   0.32750   1.000
    O53     O    0.46843   0.90048   0.33208   1.000
    O54     O    0.42718   0.90045   0.25762   1.000
    O55     O    0.38834   0.90104   0.27303   1.000
    N56     N    0.66978   0.83805   0.17253   1.000
    O57     O    0.71844   0.84960   0.16796   1.000
    O58     O    0.63835   0.84905   0.22701   1.000
    O59     O    0.67719   0.84963   0.24242   1.000
    N60     N    0.26177   0.48947   0.29235   1.000
    O61     O    0.24943   0.44656   0.31028   1.000
    O62     O    0.27309   0.44837   0.26547   1.000
    O63     O    0.25588   0.49975   0.36152   1.000
    N64     N    0.26180   0.98947   0.29237   1.000
    O65     O    0.24945   0.94657   0.31030   1.000
    O66     O    0.27311   0.94838   0.26548   1.000
    O67     O    0.25589   0.99975   0.36154   1.000
    N68     N    0.76179   0.48947   0.29238   1.000
    O69     O    0.74944   0.44656   0.31030   1.000
    O70     O    0.77310   0.44837   0.26548   1.000
    O71     O    0.75589   0.49975   0.36155   1.000
    N72     N    0.39115   0.53895   0.55138   1.000
    O73     O    0.36069   0.57047   0.58576   1.000
    O74     O    0.39952   0.57106   0.60117   1.000
    O75     O    0.34644   0.52193   0.52576   1.000
    N76     N    0.89113   0.03893   0.55140   1.000
    O77     O    0.84642   0.02192   0.52577   1.000
    O78     O    0.86067   0.07045   0.58577   1.000
    O79     O    0.89951   0.07104   0.60118   1.000
    N80     N    0.89114   0.53894   0.55139   1.000
    O81     O    0.84643   0.52193   0.52577   1.000
    O82     O    0.86068   0.57046   0.58577   1.000
    O83     O    0.89951   0.57105   0.60117   1.000
    N84     N    0.39114   0.03896   0.55132   1.000
    O85     O    0.36069   0.07047   0.58571   1.000
    O86     O    0.39952   0.07106   0.60111   1.000
    O87     O    0.34643   0.02194   0.52572   1.000
    N88     N    0.18328   0.22558   0.68141   1.000
    O89     O    0.21465   0.18838   0.67089   1.000
    O90     O    0.19099   0.18657   0.71571   1.000
    O91     O    0.20331   0.24040   0.62068   1.000
    N92     N    0.18326   0.72558   0.68137   1.000
    O93     O    0.21465   0.68838   0.67087   1.000
    O94     O    0.19098   0.68657   0.71569   1.000
    O95     O    0.20331   0.74040   0.62066   1.000
    N96     N    0.86376   0.96484   0.05753   1.000
    O97     O    0.90383   0.93884   0.07686   1.000
    O98     O    0.91282   0.96948   0.04445   1.000
    O99     O    0.83760   0.93854   0.10103   1.000
    N100    N    0.36377   0.46484   0.05752   1.000
    O101    O    0.40383   0.43884   0.07684   1.000
    O102    O    0.41282   0.46948   0.04443   1.000
    O103    O    0.33760   0.43854   0.10102   1.000
    N104    N    0.48810   0.23946   0.79229   1.000
    O105    O    0.47677   0.19837   0.76542   1.000
    O106    O    0.50043   0.19656   0.81022   1.000
    O107    O    0.49403   0.24974   0.86148   1.000
    N108    N    0.98809   0.73947   0.79212   1.000
    O109    O    0.97676   0.69838   0.76533   1.000
    O110    O    0.00042   0.69657   0.81013   1.000
    O111    O    0.99402   0.74975   0.86139   1.000
    N112    N    0.48812   0.73947   0.79229   1.000
    O113    O    0.47678   0.69838   0.76542   1.000
    O114    O    0.50044   0.69657   0.81023   1.000
    O115    O    0.49404   0.74975   0.86148   1.000
    N116    N    0.98808   0.23946   0.79231   1.000
    O117    O    0.97676   0.19837   0.76543   1.000
    O118    O    0.00042   0.19656   0.81023   1.000
    O119    O    0.99402   0.24974   0.86149   1.000
    N120    N    0.43333   0.52446   0.81853   1.000
    O121    O    0.46468   0.56165   0.82900   1.000
    O122    O    0.44102   0.56346   0.78419   1.000
    O123    O    0.45335   0.50964   0.87927   1.000
    N124    N    0.43335   0.02445   0.81851   1.000
    O125    O    0.45336   0.00963   0.87926   1.000
    O126    O    0.46469   0.06164   0.82900   1.000
    O127    O    0.44103   0.06345   0.78419   1.000
    N128    N    0.93333   0.52446   0.81853   1.000
    O129    O    0.95335   0.50963   0.87927   1.000
    O130    O    0.96468   0.56165   0.82901   1.000
    O131    O    0.94101   0.56346   0.78420   1.000
    N132    N    0.13623   0.53518   0.94242   1.000
    O133    O    0.09616   0.56118   0.92309   1.000
    O134    O    0.08718   0.53054   0.95551   1.000
    O135    O    0.16239   0.56148   0.89892   1.000
    N136    N    0.63621   0.03517   0.94241   1.000
    O137    O    0.59615   0.06117   0.92309   1.000
    O138    O    0.58716   0.03053   0.95550   1.000
    O139    O    0.66238   0.06147   0.89892   1.000
    N140    N    0.63622   0.53518   0.94243   1.000
    O141    O    0.59615   0.56118   0.92310   1.000
    O142    O    0.58717   0.53054   0.95551   1.000
    O143    O    0.66239   0.56148   0.89893   1.000
    N144    N    0.91974   0.41206   0.32752   1.000
    O145    O    0.92717   0.40044   0.25765   1.000
    O146    O    0.88833   0.40103   0.27305   1.000
    O147    O    0.96842   0.40047   0.33208   1.000
    N148    N    0.38620   0.71491   0.55754   1.000
    O149    O    0.34615   0.68890   0.57683   1.000
    O150    O    0.33716   0.71953   0.54445   1.000
    O151    O    0.41238   0.68860   0.60101   1.000
    N152    N    0.88618   0.21490   0.55754   1.000
    O153    O    0.84614   0.18888   0.57683   1.000
    O154    O    0.83715   0.21952   0.54445   1.000
    O155    O    0.91236   0.18858   0.60100   1.000
    N156    N    0.88619   0.71491   0.55754   1.000
    O157    O    0.84614   0.68889   0.57683   1.000
    O158    O    0.83715   0.71953   0.54445   1.000
    O159    O    0.91236   0.68859   0.60101   1.000
    N160    N    0.93331   0.02446   0.81854   1.000
    O161    O    0.95334   0.00963   0.87928   1.000
    O162    O    0.96467   0.06165   0.82902   1.000
    O163    O    0.94101   0.06346   0.78421   1.000
    N164    N    0.60884   0.46107   0.44855   1.000
    O165    O    0.65355   0.47809   0.47418   1.000
    O166    O    0.63930   0.42955   0.41417   1.000
    O167    O    0.60046   0.42897   0.39876   1.000
    N168    N    0.60884   0.96109   0.44853   1.000
    O169    O    0.63930   0.92957   0.41416   1.000
    O170    O    0.60047   0.92898   0.39875   1.000
    O171    O    0.65355   0.97810   0.47417   1.000
    N172    N    0.44971   0.12868   0.03240   1.000
    O173    O    0.46089   0.08298   0.02520   1.000
    O174    O    0.48042   0.13429   0.97870   1.000
    O175    O    0.47143   0.16615   0.01112   1.000
    N176    N    0.44971   0.62869   0.03237   1.000
    O177    O    0.46089   0.58299   0.02518   1.000
    O178    O    0.48042   0.63430   0.97868   1.000
    O179    O    0.47143   0.66616   0.01110   1.000
    N180    N    0.01187   0.76056   0.20767   1.000
    O181    O    0.02321   0.80165   0.23454   1.000
    O182    O    0.99955   0.80346   0.18973   1.000
    O183    O    0.00595   0.75027   0.13848   1.000
    N184    N    0.51185   0.26055   0.20767   1.000
    O185    O    0.52320   0.30164   0.23455   1.000
    O186    O    0.49954   0.30346   0.18974   1.000
    O187    O    0.50594   0.25027   0.13849   1.000
    N188    N    0.51187   0.76056   0.20766   1.000
    O189    O    0.52321   0.80165   0.23454   1.000
    O190    O    0.49955   0.80346   0.18973   1.000
    O191    O    0.50595   0.75028   0.13849   1.000
    N192    N    0.94969   0.62869   0.03236   1.000
    O193    O    0.98041   0.63430   0.97868   1.000
    O194    O    0.97143   0.66616   0.01109   1.000
    O195    O    0.96088   0.58299   0.02518   1.000
    N196    N    0.94969   0.12868   0.03237   1.000
    O197    O    0.96087   0.08298   0.02519   1.000
    O198    O    0.98041   0.13429   0.97869   1.000
    O199    O    0.97142   0.16615   0.01110   1.000
    N200    N    0.05029   0.37133   0.96758   1.000
    O201    O    0.01957   0.36572   0.02127   1.000
    O202    O    0.02856   0.33386   0.98886   1.000
    O203    O    0.03911   0.41703   0.97478   1.000
    N204    N    0.10885   0.46107   0.44856   1.000
    O205    O    0.15356   0.47809   0.47418   1.000
    O206    O    0.13931   0.42955   0.41418   1.000
    O207    O    0.10047   0.42896   0.39876   1.000
    N208    N    0.10885   0.96108   0.44856   1.000
    O209    O    0.15356   0.97810   0.47419   1.000
    O210    O    0.13931   0.92956   0.41419   1.000
    O211    O    0.10048   0.92897   0.39878   1.000
    N212    N    0.23818   0.51055   0.70756   1.000
    O213    O    0.24409   0.50027   0.63839   1.000
    O214    O    0.22688   0.55165   0.73446   1.000
    O215    O    0.25054   0.55346   0.68964   1.000
    N216    N    0.23820   0.01055   0.70756   1.000
    O217    O    0.24410   0.00027   0.63840   1.000
    O218    O    0.22688   0.05164   0.73446   1.000
    O219    O    0.25055   0.05345   0.68965   1.000
    N220    N    0.30035   0.37863   0.53228   1.000
    O221    O    0.28913   0.33294   0.52514   1.000
    O222    O    0.26961   0.38426   0.47867   1.000
    O223    O    0.27861   0.41613   0.51104   1.000
    N224    N    0.80033   0.37863   0.53230   1.000
    O225    O    0.78912   0.33294   0.52515   1.000
    O226    O    0.76960   0.38426   0.47868   1.000
    O227    O    0.77859   0.41612   0.51105   1.000
    N228    N    0.80034   0.87864   0.53229   1.000
    O229    O    0.78913   0.83295   0.52514   1.000
    O230    O    0.76960   0.88427   0.47867   1.000
    O231    O    0.77860   0.91613   0.51105   1.000
    N232    N    0.76177   0.98947   0.29237   1.000
    O233    O    0.74942   0.94657   0.31030   1.000
    O234    O    0.77309   0.94838   0.26548   1.000
    O235    O    0.75587   0.99975   0.36154   1.000
    N236    N    0.05027   0.87134   0.96755   1.000
    O237    O    0.01956   0.86573   0.02125   1.000
    O238    O    0.02856   0.83387   0.98884   1.000
    O239    O    0.03910   0.91704   0.97476   1.000
    N240    N    0.68325   0.22557   0.68139   1.000
    O241    O    0.71463   0.18837   0.67088   1.000
    O242    O    0.69097   0.18656   0.71570   1.000
    O243    O    0.70329   0.24039   0.62067   1.000
    N244    N    0.68326   0.72559   0.68140   1.000
    O245    O    0.71464   0.68838   0.67089   1.000
    O246    O    0.69098   0.68657   0.71570   1.000
    O247    O    0.70330   0.74041   0.62068   1.000
    N248    N    0.73819   0.01055   0.70757   1.000
    O249    O    0.72687   0.05164   0.73447   1.000
    O250    O    0.75054   0.05345   0.68965   1.000
    O251    O    0.74409   0.00027   0.63840   1.000
    N252    N    0.73819   0.51055   0.70758   1.000
    O253    O    0.72688   0.55165   0.73447   1.000
    O254    O    0.75054   0.55346   0.68965   1.000
    O255    O    0.74409   0.50027   0.63841   1.000
    N256    N    0.38619   0.21491   0.55753   1.000
    O257    O    0.34615   0.18889   0.57682   1.000
    O258    O    0.33716   0.21952   0.54445   1.000
    O259    O    0.41237   0.18859   0.60100   1.000
    N260    N    0.91974   0.91207   0.32752   1.000
    O261    O    0.92717   0.90045   0.25766   1.000
    O262    O    0.88833   0.90104   0.27306   1.000
    O263    O    0.96842   0.90048   0.33210   1.000
    N264    N    0.58024   0.58797   0.67244   1.000
    O265    O    0.53157   0.59955   0.66787   1.000
    O266    O    0.57281   0.59958   0.74231   1.000
    O267    O    0.61165   0.59899   0.72691   1.000
    N268    N    0.35890   0.28888   0.05195   1.000
    O269    O    0.38937   0.32035   0.08629   1.000
    O270    O    0.35053   0.32094   0.10169   1.000
    O271    O    0.40358   0.27191   0.02610   1.000
    N272    N    0.35890   0.78890   0.05192   1.000
    O273    O    0.40358   0.77192   0.02608   1.000
    O274    O    0.38937   0.82037   0.08626   1.000
    O275    O    0.35053   0.82095   0.10167   1.000
    N276    N    0.85888   0.28888   0.05197   1.000
    O277    O    0.90357   0.27191   0.02611   1.000
    O278    O    0.88936   0.32035   0.08631   1.000
    O279    O    0.85052   0.32094   0.10170   1.000
    N280    N    0.06666   0.97557   0.18143   1.000
    O281    O    0.03531   0.93838   0.17095   1.000
    O282    O    0.05897   0.93656   0.21576   1.000
    O283    O    0.04663   0.99038   0.12069   1.000
    N284    N    0.56666   0.47556   0.18141   1.000
    O285    O    0.54664   0.49038   0.12068   1.000
    O286    O    0.53531   0.43837   0.17094   1.000
    O287    O    0.55897   0.43655   0.21575   1.000
    N288    N    0.11380   0.28511   0.44242   1.000
    O289    O    0.15384   0.31113   0.42313   1.000
    O290    O    0.16284   0.28049   0.45551   1.000
    O291    O    0.08762   0.31143   0.39894   1.000
    N292    N    0.11380   0.78511   0.44240   1.000
    O293    O    0.08762   0.81143   0.39894   1.000
    O294    O    0.15385   0.81113   0.42312   1.000
    O295    O    0.16284   0.78050   0.45550   1.000
    N296    N    0.61379   0.28511   0.44241   1.000
    O297    O    0.58761   0.31143   0.39895   1.000
    O298    O    0.65383   0.31113   0.42313   1.000
    O299    O    0.66283   0.28049   0.45550   1.000
    N300    N    0.08025   0.08796   0.67243   1.000
    O301    O    0.03156   0.09954   0.66786   1.000
    O302    O    0.07282   0.09957   0.74230   1.000
    O303    O    0.11166   0.09898   0.72690   1.000
    N304    N    0.85889   0.78888   0.05200   1.000
    O305    O    0.90357   0.77191   0.02613   1.000
    O306    O    0.88936   0.82035   0.08633   1.000
    O307    O    0.85052   0.82093   0.10173   1.000
    N308    N    0.81671   0.27443   0.31855   1.000
    O309    O    0.79667   0.25961   0.37928   1.000
    O310    O    0.78533   0.31164   0.32907   1.000
    O311    O    0.80900   0.31345   0.28425   1.000
    N312    N    0.81672   0.77444   0.31856   1.000
    O313    O    0.78534   0.81165   0.32907   1.000
    O314    O    0.80900   0.81346   0.28426   1.000
    O315    O    0.79668   0.75962   0.37929   1.000
    N316    N    0.41975   0.41207   0.32751   1.000
    O317    O    0.46842   0.40048   0.33209   1.000
    O318    O    0.42718   0.40045   0.25765   1.000
    O319    O    0.38834   0.40104   0.27305   1.000
    N320    N    0.64108   0.21112   0.94804   1.000
    O321    O    0.61061   0.17965   0.91369   1.000
    O322    O    0.64945   0.17906   0.89829   1.000
    O323    O    0.59640   0.22810   0.97389   1.000
    N324    N    0.64109   0.71113   0.94802   1.000
    O325    O    0.61062   0.67966   0.91368   1.000
    O326    O    0.64946   0.67908   0.89828   1.000
    O327    O    0.59641   0.72811   0.97388   1.000
    N328    N    0.31672   0.77444   0.31854   1.000
    O329    O    0.29669   0.75962   0.37927   1.000
    O330    O    0.28535   0.81164   0.32906   1.000
    O331    O    0.30901   0.81345   0.28424   1.000
    N332    N    0.31672   0.27443   0.31855   1.000
    O333    O    0.29668   0.25962   0.37928   1.000
    O334    O    0.28534   0.31164   0.32907   1.000
    O335    O    0.30901   0.31345   0.28425   1.000
    N336    N    0.83021   0.66198   0.82741   1.000
    O337    O    0.82279   0.65039   0.75753   1.000
    O338    O    0.86163   0.65098   0.77294   1.000
    O339    O    0.78154   0.65042   0.83199   1.000
    N340    N    0.01188   0.26055   0.20766   1.000
    O341    O    0.00596   0.25027   0.13848   1.000
    O342    O    0.02321   0.30164   0.23453   1.000
    O343    O    0.99955   0.30345   0.18973   1.000
    N344    N    0.19964   0.12138   0.46766   1.000
    O345    O    0.21086   0.16707   0.47481   1.000
    O346    O    0.23038   0.11575   0.52128   1.000
    O347    O    0.22139   0.08389   0.48890   1.000
    N348    N    0.19965   0.62139   0.46766   1.000
    O349    O    0.21086   0.66708   0.47481   1.000
    O350    O    0.23038   0.61576   0.52128   1.000
    O351    O    0.22139   0.58389   0.48890   1.000
    N352    N    0.30036   0.87864   0.53228   1.000
    O353    O    0.28914   0.83295   0.52514   1.000
    O354    O    0.26962   0.88427   0.47866   1.000
    O355    O    0.27861   0.91613   0.51103   1.000
    N356    N    0.55028   0.37133   0.96758   1.000
    O357    O    0.52855   0.33386   0.98886   1.000
    O358    O    0.51957   0.36572   0.02127   1.000
    O359    O    0.53910   0.41703   0.97478   1.000
    N360    N    0.33021   0.16197   0.82741   1.000
    O361    O    0.32280   0.15038   0.75753   1.000
    O362    O    0.36163   0.15097   0.77294   1.000
    O363    O    0.28154   0.15041   0.83199   1.000
    N364    N    0.33022   0.66198   0.82741   1.000
    O365    O    0.32281   0.65039   0.75753   1.000
    O366    O    0.36164   0.65098   0.77294   1.000
    O367    O    0.28155   0.65042   0.83199   1.000
    N368    N    0.86376   0.46484   0.05752   1.000
    O369    O    0.90382   0.43884   0.07685   1.000
    O370    O    0.91282   0.46948   0.04445   1.000
    O371    O    0.83759   0.43854   0.10102   1.000
    N372    N    0.61379   0.78512   0.44241   1.000
    O373    O    0.58761   0.81144   0.39895   1.000
    O374    O    0.65384   0.81114   0.42313   1.000
    O375    O    0.66283   0.78050   0.45550   1.000
    N376    N    0.08025   0.58796   0.67243   1.000
    O377    O    0.03157   0.59955   0.66786   1.000
    O378    O    0.07282   0.59957   0.74230   1.000
    O379    O    0.11166   0.59899   0.72690   1.000
    N380    N    0.58024   0.08796   0.67243   1.000
    O381    O    0.57281   0.09957   0.74230   1.000
    O382    O    0.61165   0.09898   0.72691   1.000
    O383    O    0.53156   0.09954   0.66786   1.000
    N384    N    0.36377   0.96485   0.05751   1.000
    O385    O    0.40384   0.93885   0.07683   1.000
    O386    O    0.41282   0.96948   0.04443   1.000
    O387    O    0.33761   0.93855   0.10102   1.000
    N388    N    0.66977   0.33804   0.17255   1.000
    O389    O    0.71844   0.34959   0.16796   1.000
    O390    O    0.67718   0.34963   0.24243   1.000
    O391    O    0.63835   0.34904   0.22702   1.000
    N392    N    0.83020   0.16197   0.82741   1.000
    O393    O    0.82279   0.15038   0.75753   1.000
    O394    O    0.86162   0.15097   0.77294   1.000
    O395    O    0.78153   0.15042   0.83199   1.000
    N396    N    0.69963   0.12138   0.46766   1.000
    O397    O    0.73037   0.11575   0.52127   1.000
    O398    O    0.72137   0.08389   0.48890   1.000
    O399    O    0.71085   0.16707   0.47481   1.000
    N400    N    0.69964   0.62139   0.46765   1.000
    O401    O    0.73038   0.61576   0.52127   1.000
    O402    O    0.72138   0.58389   0.48890   1.000
    O403    O    0.71086   0.66708   0.47480   1.000
    N404    N    0.16978   0.33804   0.17252   1.000
    O405    O    0.21845   0.34959   0.16795   1.000
    O406    O    0.13836   0.34904   0.22699   1.000
    O407    O    0.17719   0.34962   0.24241   1.000
    N408    N    0.16978   0.83805   0.17253   1.000
    O409    O    0.21845   0.84960   0.16796   1.000
    O410    O    0.17719   0.84964   0.24242   1.000
    O411    O    0.13836   0.84905   0.22701   1.000
    N412    N    0.06666   0.47556   0.18141   1.000
    O413    O    0.03531   0.43837   0.17094   1.000
    O414    O    0.05897   0.43656   0.21574   1.000
    O415    O    0.04664   0.49038   0.12068   1.000
    N416    N    0.14109   0.21113   0.94799   1.000
    O417    O    0.09641   0.22810   0.97386   1.000
    O418    O    0.11062   0.17966   0.91366   1.000
    O419    O    0.14946   0.17907   0.89826   1.000
    N420    N    0.14110   0.71114   0.94796   1.000
    O421    O    0.09642   0.72811   0.97384   1.000
    O422    O    0.11063   0.67968   0.91363   1.000
    O423    O    0.14946   0.67909   0.89823   1.000
    N424    N    0.13622   0.03517   0.94242   1.000
    O425    O    0.09616   0.06117   0.92309   1.000
    O426    O    0.08717   0.03053   0.95551   1.000
    O427    O    0.16239   0.06147   0.89892   1.000
    N428    N    0.55029   0.87134   0.96757   1.000
    O429    O    0.52856   0.83387   0.98886   1.000
    O430    O    0.51958   0.86573   0.02126   1.000
    O431    O    0.53911   0.91704   0.97476   1.000
loop_
    _geom_bond_atom_site_label_1
    _geom_bond_atom_site_label_2
    _geom_bond_distance
    _geom_bond_site_symmetry_2
    _ccdc_geom_bond_type
    N48    O49       1.07844      .   S
    Zr1    O49       2.10050      .   S
    N48    O50       1.05736      .   S
    Zr7    O50       2.08737      .   S
    N48    O51       1.05293      .   S
    Zr42   O51       2.04307  1_556   S
    N52    O53       1.02236      .   S
    Zr7    O53       1.98192      .   S
    N52    O54       1.07834      .   S
    Zr1    O54       2.10240      .   S
    N52    O55       1.05675      .   S
    Zr13   O55       2.07201      .   S
    N56    O57       1.02241      .   S
    Zr15   O57       1.98227      .   S
    N56    O58       1.05620      .   S
    Zr7    O58       2.07074      .   S
    N56    O59       1.07848      .   S
    Zr11   O59       2.10308      .   S
    N60    O61       1.06328      .   S
    Zr8    O61       2.07591      .   S
    N60    O62       1.04974      .   S
    Zr12   O62       2.04598      .   S
    N60    O63       1.05762      .   S
    Zr37   O63       2.06154      .   S
    N64    O65       1.06318      .   S
    Zr9    O65       2.07581      .   S
    N64    O66       1.04965      .   S
    Zr13   O66       2.04592      .   S
    N64    O67       1.05761      .   S
    Zr36   O67       2.06125  1_545   S
    N68    O69       1.06329      .   S
    Zr10   O69       2.07590      .   S
    N68    O70       1.04974      .   S
    Zr14   O70       2.04600      .   S
    N68    O71       1.05765      .   S
    Zr39   O71       2.06126      .   S
    N72    O73       1.07578      .   S
    Zr25   O73       2.09946      .   S
    N72    O74       1.05254      .   S
    Zr21   O74       2.06975      .   S
    N72    O75       1.05467      .   S
    Zr37   O75       2.04942      .   S
    N76    O77       1.05467      .   S
    Zr38   O77       2.04944      .   S
    N76    O78       1.07579      .   S
    Zr26   O78       2.09948      .   S
    N76    O79       1.05251      .   S
    Zr22   O79       2.06970      .   S
    N80    O81       1.05465      .   S
    Zr39   O81       2.04940      .   S
    N80    O82       1.07578      .   S
    Zr27   O82       2.09949      .   S
    N80    O83       1.05249      .   S
    Zr23   O83       2.06973      .   S
    N84    O85       1.07571      .   S
    Zr24   O85       2.09954      .   S
    N84    O86       1.05246      .   S
    Zr20   O86       2.07003      .   S
    N84    O87       1.05463      .   S
    Zr36   O87       2.04941      .   S
    N88    O89       1.07814      .   S
    Zr24   O89       2.09968      .   S
    N88    O90       1.05722      .   S
    Zr28   O90       2.08681      .   S
    N88    O91       1.05298      .   S
    Zr44   O91       2.04315      .   S
    N92    O93       1.07816      .   S
    Zr25   O93       2.09972      .   S
    N92    O94       1.05730      .   S
    Zr29   O94       2.08691      .   S
    N92    O95       1.05282      .   S
    Zr45   O95       2.04299      .   S
    N96    O97       1.05210      .   S
    Zr3    O97       2.03893      .   S
    N96    O98       1.01666      .   S
    Zr40   O98       2.01538  1_445   S
    N96    O99       1.04127      .   S
    Zr15   O99       2.01486      .   S
    N100   O101      1.05209      .   S
    Zr0    O101      2.03910      .   S
    N100   O102      1.01661      .   S
    Zr43   O102      2.01518      .   S
    N100   O103      1.04137      .   S
    Zr12   O103      2.01494      .   S
    N104   O105      1.05007      .   S
    Zr20   O105      2.04644      .   S
    N104   O106      1.06284      .   S
    Zr18   O106      2.07511      .   S
    N104   O107      1.05820      .   S
    Zr34   O107      2.06263  1_554   S
    N108   O109      1.04961      .   S
    Zr23   O109      2.04574      .   S
    N108   O110      1.06319  1_655   S
    Zr17   O110      2.07577      .   S
    N108   O111      1.05935      .   S
    Zr33   O111      2.06390  1_455   S
    N112   O113      1.05013      .   S
    Zr21   O113      2.04656      .   S
    N112   O114      1.06279      .   S
    Zr19   O114      2.07503      .   S
    N112   O115      1.05808      .   S
    Zr35   O115      2.06265  1_554   S
    N116   O117      1.05010      .   S
    Zr22   O117      2.04652      .   S
    N116   O118      1.06284  1_655   S
    Zr16   O118      2.07519      .   S
    N116   O119      1.05806      .   S
    Zr32   O119      2.06256  1_454   S
    N120   O121      1.07847      .   S
    Zr19   O121      2.10054      .   S
    N120   O122      1.05744      .   S
    Zr21   O122      2.08729      .   S
    N120   O123      1.05314      .   S
    Zr43   O123      2.04354  1_554   S
    N124   O125      1.05309      .   S
    Zr42   O125      2.04342  1_565   S
    N124   O126      1.07840      .   S
    Zr18   O126      2.10040      .   S
    N124   O127      1.05733      .   S
    Zr20   O127      2.08734      .   S
    N128   O129      1.05310      .   S
    Zr41   O129      2.04352  1_455   S
    N128   O130      1.07854      .   S
    Zr17   O130      2.10070  1_455   S
    N128   O131      1.05740      .   S
    Zr23   O131      2.08740      .   S
    N132   O133      1.05212      .   S
    Zr17   O133      2.03896      .   S
    N132   O134      1.01660      .   S
    Zr41   O134      2.01541      .   S
    N132   O135      1.04133      .   S
    Zr29   O135      2.01482      .   S
    N136   O137      1.05209      .   S
    Zr18   O137      2.03894      .   S
    N136   O138      1.01665      .   S
    Zr42   O138      2.01546  1_565   S
    N136   O139      1.04121      .   S
    Zr30   O139      2.01469      .   S
    N140   O141      1.05213      .   S
    Zr19   O141      2.03901      .   S
    N140   O142      1.01660      .   S
    Zr43   O142      2.01540  1_554   S
    N140   O143      1.04130      .   S
    Zr31   O143      2.01488      .   S
    N144   O145      1.07822      .   S
    Zr2    O145      2.10250      .   S
    N144   O146      1.05671      .   S
    Zr14   O146      2.07222      .   S
    N144   O147      1.02244      .   S
    Zr4    O147      1.98228  1_455   S
    N148   O149      1.05247      .   S
    Zr25   O149      2.03971      .   S
    N148   O150      1.01627      .   S
    Zr45   O150      2.01412      .   S
    N148   O151      1.04105      .   S
    Zr21   O151      2.01436      .   S
    N152   O153      1.05247      .   S
    Zr26   O153      2.03970      .   S
    N152   O154      1.01627      .   S
    Zr46   O154      2.01413      .   S
    N152   O155      1.04105      .   S
    Zr22   O155      2.01434      .   S
    N156   O157      1.05247      .   S
    Zr27   O157      2.03972      .   S
    N156   O158      1.01626      .   S
    Zr47   O158      2.01411      .   S
    N156   O159      1.04105      .   S
    Zr23   O159      2.01436      .   S
    N160   O161      1.05311      .   S
    Zr40   O161      2.04357  1_454   S
    N160   O162      1.07849      .   S
    Zr16   O162      2.10066  1_455   S
    N160   O163      1.05736      .   S
    Zr22   O163      2.08742      .   S
    N164   O165      1.05470      .   S
    Zr39   O165      2.04943      .   S
    N164   O166      1.07582      .   S
    Zr10   O166      2.09938      .   S
    N164   O167      1.05257      .   S
    Zr6    O167      2.06951      .   S
    N168   O169      1.07580      .   S
    Zr11   O169      2.09945      .   S
    N168   O170      1.05251      .   S
    Zr7    O170      2.06959      .   S
    N168   O171      1.05460      .   S
    Zr38   O171      2.04924  1_545   S
    N172   O173      1.08489      .   S
    Zr42   O173      2.10348  1_566   S
    N172   O174      1.02142  1_554   S
    Zr18   O174      1.97730      .   S
    N172   O175      1.02792      .   S
    Zr34   O175      2.03551      .   S
    N176   O177      1.08489      .   S
    Zr43   O177      2.10348      .   S
    N176   O178      1.02133  1_554   S
    Zr19   O178      1.97717      .   S
    N176   O179      1.02789      .   S
    Zr35   O179      2.03551      .   S
    N180   O181      1.05017      .   S
    Zr5    O181      2.04661      .   S
    N180   O182      1.06279  1_455   S
    Zr3    O182      2.07511      .   S
    N180   O183      1.05800      .   S
    Zr33   O183      2.06229  1_556   S
    N184   O185      1.05014      .   S
    Zr6    O185      2.04651      .   S
    N184   O186      1.06277      .   S
    Zr0    O186      2.07502      .   S
    N184   O187      1.05808      .   S
    Zr34   O187      2.06219      .   S
    N188   O189      1.05011      .   S
    Zr7    O189      2.04649      .   S
    N188   O190      1.06282      .   S
    Zr1    O190      2.07513      .   S
    N188   O191      1.05794      .   S
    Zr35   O191      2.06220      .   S
    N192   O193      1.02146  1_554   S
    Zr17   O193      1.97738  1_455   S
    N192   O194      1.02796      .   S
    Zr33   O194      2.03560  1_456   S
    N192   O195      1.08493      .   S
    Zr41   O195      2.10362  1_456   S
    N196   O197      1.08493      .   S
    Zr40   O197      2.10363  1_455   S
    N196   O198      1.02146  1_554   S
    Zr16   O198      1.97741  1_455   S
    N196   O199      1.02797      .   S
    Zr32   O199      2.03560  1_455   S
    N200   O201      1.02147  1_556   S
    Zr2    O201      1.97740  1_655   S
    N200   O202      1.02797      .   S
    Zr32   O202      2.03558  1_554   S
    N200   O203      1.08490      .   S
    Zr41   O203      2.10351      .   S
    N204   O205      1.05467      .   S
    Zr37   O205      2.04946      .   S
    N204   O206      1.07575      .   S
    Zr8    O206      2.09945      .   S
    N204   O207      1.05259      .   S
    Zr4    O207      2.06998      .   S
    N208   O209      1.05458      .   S
    Zr36   O209      2.04919  1_545   S
    N208   O210      1.07578      .   S
    Zr9    O210      2.09947      .   S
    N208   O211      1.05251      .   S
    Zr5    O211      2.06970      .   S
    N212   O213      1.05761      .   S
    Zr37   O213      2.06109      .   S
    N212   O214      1.04977      .   S
    Zr29   O214      2.04606      .   S
    N212   O215      1.06328      .   S
    Zr25   O215      2.07592      .   S
    N216   O217      1.05762      .   S
    Zr36   O217      2.06116      .   S
    N216   O218      1.04968      .   S
    Zr28   O218      2.04598      .   S
    N216   O219      1.06316      .   S
    Zr24   O219      2.07576      .   S
    N220   O221      1.08512      .   S
    Zr44   O221      2.10409      .   S
    N220   O222      1.02115      .   S
    Zr8    O222      1.97684      .   S
    N220   O223      1.02788      .   S
    Zr37   O223      2.03550      .   S
    N224   O225      1.08511      .   S
    Zr46   O225      2.10406      .   S
    N224   O226      1.02117      .   S
    Zr10   O226      1.97692      .   S
    N224   O227      1.02787      .   S
    Zr39   O227      2.03548      .   S
    N228   O229      1.08513      .   S
    Zr47   O229      2.10406      .   S
    N228   O230      1.02113      .   S
    Zr11   O230      1.97688      .   S
    N228   O231      1.02779      .   S
    Zr38   O231      2.03522  1_545   S
    N232   O233      1.06314      .   S
    Zr11   O233      2.07575      .   S
    N232   O234      1.04969      .   S
    Zr15   O234      2.04596      .   S
    N232   O235      1.05765      .   S
    Zr38   O235      2.06121  1_545   S
    N236   O237      1.02149  1_556   S
    Zr3    O237      1.97748  1_655   S
    N236   O238      1.02793      .   S
    Zr33   O238      2.03550      .   S
    N236   O239      1.08478      .   S
    Zr40   O239      2.10325  1_544   S
    N240   O241      1.07817      .   S
    Zr26   O241      2.09975      .   S
    N240   O242      1.05725      .   S
    Zr30   O242      2.08689      .   S
    N240   O243      1.05297      .   S
    Zr46   O243      2.04313      .   S
    N244   O245      1.07817      .   S
    Zr27   O245      2.09974      .   S
    N244   O246      1.05725      .   S
    Zr31   O246      2.08691      .   S
    N244   O247      1.05295      .   S
    Zr47   O247      2.04316      .   S
    N248   O249      1.04969      .   S
    Zr30   O249      2.04602      .   S
    N248   O250      1.06316      .   S
    Zr26   O250      2.07575      .   S
    N248   O251      1.05766      .   S
    Zr38   O251      2.06120      .   S
    N252   O253      1.04975      .   S
    Zr31   O253      2.04605      .   S
    N252   O254      1.06327      .   S
    Zr27   O254      2.07585      .   S
    N252   O255      1.05764      .   S
    Zr39   O255      2.06118      .   S
    N256   O257      1.05250      .   S
    Zr24   O257      2.03979      .   S
    N256   O258      1.01626      .   S
    Zr44   O258      2.01411      .   S
    N256   O259      1.04108      .   S
    Zr20   O259      2.01441      .   S
    N260   O261      1.07824      .   S
    Zr3    O261      2.10259      .   S
    N260   O262      1.05670      .   S
    Zr15   O262      2.07221      .   S
    N260   O263      1.02244      .   S
    Zr5    O263      1.98218  1_455   S
    N264   O265      1.02235      .   S
    Zr21   O265      1.98190      .   S
    N264   O266      1.07821      .   S
    Zr19   O266      2.10249      .   S
    N264   O267      1.05669      .   S
    Zr31   O267      2.07216      .   S
    N268   O269      1.07582      .   S
    Zr0    O269      2.10040      .   S
    N268   O270      1.05097      .   S
    Zr12   O270      2.06646      .   S
    N268   O271      1.05418      .   S
    Zr34   O271      2.04863      .   S
    N272   O273      1.05417      .   S
    Zr35   O273      2.04860      .   S
    N272   O274      1.07581      .   S
    Zr1    O274      2.10037      .   S
    N272   O275      1.05102      .   S
    Zr13   O275      2.06658      .   S
    N276   O277      1.05429      .   S
    Zr32   O277      2.04900  1_455   S
    N276   O278      1.07582      .   S
    Zr2    O278      2.10039      .   S
    N276   O279      1.05093      .   S
    Zr14   O279      2.06635      .   S
    N280   O281      1.07847      .   S
    Zr3    O281      2.10063  1_655   S
    N280   O282      1.05736      .   S
    Zr5    O282      2.08737      .   S
    N280   O283      1.05294      .   S
    Zr40   O283      2.04305  1_545   S
    N284   O285      1.05293      .   S
    Zr43   O285      2.04301      .   S
    N284   O286      1.07849      .   S
    Zr0    O286      2.10050      .   S
    N284   O287      1.05742      .   S
    Zr6    O287      2.08746      .   S
    N288   O289      1.05246      .   S
    Zr8    O289      2.03969      .   S
    N288   O290      1.01627      .   S
    Zr44   O290      2.01415      .   S
    N288   O291      1.04114      .   S
    Zr4    O291      2.01470      .   S
    N292   O293      1.04106      .   S
    Zr5    O293      2.01421      .   S
    N292   O294      1.05245      .   S
    Zr9    O294      2.03970      .   S
    N292   O295      1.01628      .   S
    Zr45   O295      2.01416      .   S
    N296   O297      1.04104      .   S
    Zr6    O297      2.01434      .   S
    N296   O298      1.05247      .   S
    Zr10   O298      2.03972      .   S
    N296   O299      1.01626      .   S
    Zr46   O299      2.01413      .   S
    N300   O301      1.02244      .   S
    Zr22   O301      1.98218  1_655   S
    N300   O302      1.07832      .   S
    Zr16   O302      2.10258      .   S
    N300   O303      1.05676      .   S
    Zr28   O303      2.07219      .   S
    N304   O305      1.05430      .   S
    Zr33   O305      2.04905  1_456   S
    N304   O306      1.07581      .   S
    Zr3    O306      2.10041      .   S
    N304   O307      1.05091      .   S
    Zr15   O307      2.06632      .   S
    N308   O309      1.05298      .   S
    Zr46   O309      2.04317      .   S
    N308   O310      1.07816      .   S
    Zr10   O310      2.09973      .   S
    N308   O311      1.05722      .   S
    Zr14   O311      2.08685      .   S
    N312   O313      1.07817      .   S
    Zr11   O313      2.09973      .   S
    N312   O314      1.05722      .   S
    Zr15   O314      2.08680      .   S
    N312   O315      1.05297      .   S
    Zr47   O315      2.04313      .   S
    N316   O317      1.02236      .   S
    Zr6    O317      1.98192      .   S
    N316   O318      1.07821      .   S
    Zr0    O318      2.10249      .   S
    N316   O319      1.05672      .   S
    Zr12   O319      2.07223      .   S
    N320   O321      1.07584      .   S
    Zr18   O321      2.10042      .   S
    N320   O322      1.05102      .   S
    Zr30   O322      2.06660      .   S
    N320   O323      1.05419      .   S
    Zr34   O323      2.04861  1_554   S
    N324   O325      1.07584      .   S
    Zr19   O325      2.10042      .   S
    N324   O326      1.05100      .   S
    Zr31   O326      2.06654      .   S
    N324   O327      1.05420      .   S
    Zr35   O327      2.04863  1_554   S
    N328   O329      1.05306      .   S
    Zr45   O329      2.04325      .   S
    N328   O330      1.07818      .   S
    Zr9    O330      2.09977      .   S
    N328   O331      1.05718      .   S
    Zr13   O331      2.08679      .   S
    N332   O333      1.05297      .   S
    Zr44   O333      2.04318      .   S
    N332   O334      1.07816      .   S
    Zr8    O334      2.09973      .   S
    N332   O335      1.05723      .   S
    Zr12   O335      2.08685      .   S
    N336   O337      1.07835      .   S
    Zr27   O337      2.10296      .   S
    N336   O338      1.05612      .   S
    Zr23   O338      2.07072      .   S
    N336   O339      1.02240      .   S
    Zr31   O339      1.98222      .   S
    N340   O341      1.05799      .   S
    Zr32   O341      2.06211      .   S
    N340   O342      1.05007      .   S
    Zr4    O342      2.04627      .   S
    N340   O343      1.06281  1_455   S
    Zr2    O343      2.07514      .   S
    N344   O345      1.08511      .   S
    Zr44   O345      2.10407      .   S
    N344   O346      1.02117      .   S
    Zr24   O346      1.97698      .   S
    N344   O347      1.02788      .   S
    Zr36   O347      2.03551      .   S
    N348   O349      1.08512      .   S
    Zr45   O349      2.10410      .   S
    N348   O350      1.02115      .   S
    Zr25   O350      1.97690      .   S
    N348   O351      1.02787      .   S
    Zr37   O351      2.03548      .   S
    N352   O353      1.08512      .   S
    Zr45   O353      2.10407      .   S
    N352   O354      1.02117      .   S
    Zr9    O354      1.97675      .   S
    N352   O355      1.02782      .   S
    Zr36   O355      2.03524  1_545   S
    N356   O357      1.02796      .   S
    Zr34   O357      2.03556  1_554   S
    N356   O358      1.02140  1_556   S
    Zr0    O358      1.97724      .   S
    N356   O359      1.08491      .   S
    Zr43   O359      2.10356  1_554   S
    N360   O361      1.07833      .   S
    Zr24   O361      2.10294      .   S
    N360   O362      1.05610      .   S
    Zr20   O362      2.07068      .   S
    N360   O363      1.02241      .   S
    Zr28   O363      1.98224      .   S
    N364   O365      1.07837      .   S
    Zr25   O365      2.10305      .   S
    N364   O366      1.05610      .   S
    Zr21   O366      2.07068      .   S
    N364   O367      1.02242      .   S
    Zr29   O367      1.98225      .   S
    N368   O369      1.05212      .   S
    Zr2    O369      2.03899      .   S
    N368   O370      1.01670      .   S
    Zr41   O370      2.01558  1_456   S
    N368   O371      1.04132      .   S
    Zr14   O371      2.01488      .   S
    N372   O373      1.04105      .   S
    Zr7    O373      2.01439      .   S
    N372   O374      1.05246      .   S
    Zr11   O374      2.03969      .   S
    N372   O375      1.01627      .   S
    Zr47   O375      2.01415      .   S
    N376   O377      1.02243      .   S
    Zr23   O377      1.98217  1_655   S
    N376   O378      1.07822      .   S
    Zr17   O378      2.10249      .   S
    N376   O379      1.05672      .   S
    Zr29   O379      2.07224      .   S
    N380   O381      1.07828      .   S
    Zr18   O381      2.10256      .   S
    N380   O382      1.05675      .   S
    Zr30   O382      2.07221      .   S
    N380   O383      1.02235      .   S
    Zr20   O383      1.98192      .   S
    N384   O385      1.05209      .   S
    Zr1    O385      2.03907      .   S
    N384   O386      1.01657      .   S
    Zr42   O386      2.01495  1_556   S
    N384   O387      1.04139      .   S
    Zr13   O387      2.01500      .   S
    N388   O389      1.02242      .   S
    Zr14   O389      1.98225      .   S
    N388   O390      1.07836      .   S
    Zr10   O390      2.10297      .   S
    N388   O391      1.05611      .   S
    Zr6    O391      2.07071      .   S
    N392   O393      1.07835      .   S
    Zr26   O393      2.10295      .   S
    N392   O394      1.05611      .   S
    Zr22   O394      2.07073      .   S
    N392   O395      1.02241      .   S
    Zr30   O395      1.98221      .   S
    N396   O397      1.02112      .   S
    Zr26   O397      1.97705      .   S
    N396   O398      1.02784      .   S
    Zr38   O398      2.03550      .   S
    N396   O399      1.08513      .   S
    Zr46   O399      2.10410      .   S
    N400   O401      1.02117      .   S
    Zr27   O401      1.97698      .   S
    N400   O402      1.02786      .   S
    Zr39   O402      2.03549      .   S
    N400   O403      1.08511      .   S
    Zr47   O403      2.10408      .   S
    N404   O405      1.02240      .   S
    Zr12   O405      1.98228      .   S
    N404   O406      1.05615      .   S
    Zr4    O406      2.07052      .   S
    N404   O407      1.07857      .   S
    Zr8    O407      2.10317      .   S
    N408   O409      1.02240      .   S
    Zr13   O409      1.98225      .   S
    N408   O410      1.07847      .   S
    Zr9    O410      2.10308      .   S
    N408   O411      1.05620      .   S
    Zr5    O411      2.07077      .   S
    N412   O413      1.07853      .   S
    Zr2    O413      2.10067  1_655   S
    N412   O414      1.05735      .   S
    Zr4    O414      2.08713      .   S
    N412   O415      1.05293      .   S
    Zr41   O415      2.04304  1_556   S
    N416   O417      1.05425      .   S
    Zr32   O417      2.04869  1_554   S
    N416   O418      1.07581      .   S
    Zr16   O418      2.10039      .   S
    N416   O419      1.05095      .   S
    Zr28   O419      2.06648      .   S
    N420   O421      1.05424      .   S
    Zr33   O421      2.04873      .   S
    N420   O422      1.07579      .   S
    Zr17   O422      2.10035      .   S
    N420   O423      1.05091      .   S
    Zr29   O423      2.06630      .   S
    N424   O425      1.05211      .   S
    Zr16   O425      2.03897      .   S
    N424   O426      1.01664      .   S
    Zr40   O426      2.01544  1_554   S
    N424   O427      1.04131      .   S
    Zr28   O427      2.01483      .   S
    N428   O429      1.02801      .   S
    Zr35   O429      2.03559  1_554   S
    N428   O430      1.02144  1_556   S
    Zr1    O430      1.97717      .   S
    N428   O431      1.08481      .   S
    Zr42   O431      2.10337      .   S
