# CIF file generated by openbabel 2.4.90, see http://openbabel.sf.net
data_I
_chemical_name_common ''
_cell_length_a 10.85
_cell_length_b 14.447
_cell_length_c 15.857
_cell_angle_alpha 90
_cell_angle_beta 89.976
_cell_angle_gamma 90.003
_space_group_name_H-M_alt 'P 1'
_space_group_name_Hall 'P 1'
loop_
    _symmetry_equiv_pos_as_xyz
    x,y,z
loop_
    _atom_site_label
    _atom_site_type_symbol
    _atom_site_fract_x
    _atom_site_fract_y
    _atom_site_fract_z
    _atom_site_occupancy
    K0      K    0.00000   0.48765   0.75001   1.000
    K1      K    0.33233   0.00000   0.74997   1.000
    K2      K    0.00000   0.00000   0.75001   1.000
    K3      K    0.17255   0.51232   0.24992   1.000
    K4      K    0.67252   0.51231   0.24988   1.000
    K5      K    0.17254   0.98767   0.24990   1.000
    K6      K    0.67249   0.98770   0.24980   1.000
    V7      V    0.06714   0.46798   0.54718   1.000
    V8      V    0.56717   0.46796   0.54715   1.000
    V9      V    0.06698   0.03205   0.95276   1.000
    V10     V    0.56700   0.03201   0.95259   1.000
    V11     V    0.43792   0.53197   0.04723   1.000
    V12     V    0.00000   0.53195   0.04725   1.000
    V13     V    0.43807   0.96792   0.45279   1.000
    V14     V    0.00000   0.96792   0.45279   1.000
    V15     V    0.43807   0.53209   0.45280   1.000
    V16     V    0.00000   0.53208   0.45279   1.000
    V17     V    0.43792   0.96807   0.04721   1.000
    V18     V    0.00000   0.96810   0.04726   1.000
    V19     V    0.06702   0.46795   0.95276   1.000
    V20     V    0.56702   0.46797   0.95268   1.000
    V21     V    0.06715   0.03201   0.54718   1.000
    V22     V    0.56718   0.03203   0.54713   1.000
    V23     V    0.88402   0.75001   0.75004   1.000
    V24     V    0.38400   0.75002   0.75010   1.000
    V25     V    0.62094   0.24998   0.24998   1.000
    V26     V    0.12106   0.24999   0.25010   1.000
    K27     K    0.33239   0.48766   0.74999   1.000
    O28     O    0.53146   0.75001   0.75024   1.000
    O29     O    0.03150   0.75001   0.75007   1.000
    O30     O    0.97359   0.25000   0.25091   1.000
    O31     O    0.47350   0.25003   0.25105   1.000
loop_
    _geom_bond_atom_site_label_1
    _geom_bond_atom_site_label_2
    _geom_bond_distance
    _geom_bond_site_symmetry_2
    _ccdc_geom_bond_type
    V17    V10       2.25031  1_564   S
    V11    V20       2.25011  1_554   S
    V12    V19       1.90468  1_554   S
    V18    V9        1.90427  1_564   S
    V25    O31       1.59976      .   S
    V26    O30       1.60010  1_455   S
    V13    V22       2.24944  1_565   S
    V14    V21       1.90511  1_565   S
    V16    V7        1.90505      .   S
    V15    V8        2.24954      .   S
    V23    O29       1.60015  1_655   S
    V24    O28       1.60001      .   S
