# CIF file generated by openbabel 2.4.90, see http://openbabel.sf.net
data_I
_chemical_name_common ''
_cell_length_a 10.85
_cell_length_b 14.447
_cell_length_c 15.857
_cell_angle_alpha 90
_cell_angle_beta 89.976
_cell_angle_gamma 90.003
_space_group_name_H-M_alt 'P 1'
_space_group_name_Hall 'P 1'
loop_
    _symmetry_equiv_pos_as_xyz
    x,y,z
loop_
    _atom_site_label
    _atom_site_type_symbol
    _atom_site_fract_x
    _atom_site_fract_y
    _atom_site_fract_z
    _atom_site_occupancy
    Zr0     Zr   0.33239   0.48766   0.74999   1.000
    Zr1     Zr   0.00000   0.48765   0.75001   1.000
    Zr2     Zr   0.33233   0.00000   0.74997   1.000
    Zr3     Zr   0.00000   0.00000   0.75001   1.000
    Zr4     Zr   0.17255   0.51232   0.24992   1.000
    Zr5     Zr   0.67252   0.51231   0.24988   1.000
    Zr6     Zr   0.17254   0.98767   0.24990   1.000
    Zr7     Zr   0.67249   0.98770   0.24980   1.000
    Zr8     Zr   0.94823   0.43768   0.60375   1.000
    Zr9     Zr   0.44826   0.43768   0.60374   1.000
    Zr10    Zr   0.94814   0.06235   0.89620   1.000
    Zr11    Zr   0.44804   0.06231   0.89615   1.000
    Zr12    Zr   0.55684   0.56227   0.10374   1.000
    Zr13    Zr   0.05680   0.56224   0.10375   1.000
    Zr14    Zr   0.55701   0.93765   0.39623   1.000
    Zr15    Zr   0.05703   0.93763   0.39624   1.000
    Zr16    Zr   0.55701   0.56235   0.39623   1.000
    Zr17    Zr   0.05702   0.56235   0.39623   1.000
    Zr18    Zr   0.55681   0.93773   0.10372   1.000
    Zr19    Zr   0.05672   0.93780   0.10375   1.000
    Zr20    Zr   0.94815   0.43767   0.89621   1.000
    Zr21    Zr   0.44810   0.43769   0.89618   1.000
    Zr22    Zr   0.94824   0.06232   0.60374   1.000
    Zr23    Zr   0.44828   0.06233   0.60373   1.000
    O24     O    0.61465   0.96271   0.17676   1.000
    O25     O    0.61468   0.53729   0.17681   1.000
    O26     O    0.11467   0.53728   0.17683   1.000
    O27     O    0.11463   0.96273   0.17683   1.000
    O28     O    0.39024   0.46267   0.82309   1.000
    O29     O    0.97407   0.03117   0.82311   1.000
    O30     O    0.97408   0.46266   0.82311   1.000
    O31     O    0.97411   0.46267   0.67688   1.000
    O32     O    0.39033   0.46267   0.67687   1.000
    O33     O    0.39019   0.03116   0.82306   1.000
    O34     O    0.61475   0.96267   0.32301   1.000
    O35     O    0.11479   0.96265   0.32307   1.000
    O36     O    0.61476   0.53733   0.32306   1.000
    O37     O    0.11478   0.53734   0.32307   1.000
    O38     O    0.97412   0.03116   0.67688   1.000
    O39     O    0.39031   0.03117   0.67685   1.000
    N40     N    0.73854   0.74999   0.91977   1.000
    N41     N    0.23850   0.75000   0.91980   1.000
    O42     O    0.28582   0.83618   0.85588   1.000
    O43     O    0.28584   0.66074   0.85589   1.000
    O44     O    0.24497   0.85940   0.87336   1.000
    N45     N    0.23860   0.75000   0.58033   1.000
    O46     O    0.28590   0.66075   0.64420   1.000
    O47     O    0.28589   0.83617   0.64419   1.000
    O48     O    0.24507   0.85942   0.62670   1.000
    N49     N    0.73859   0.75000   0.58031   1.000
    N50     N    0.26633   0.25000   0.08004   1.000
    O51     O    0.21891   0.16074   0.14396   1.000
    O52     O    0.21893   0.33925   0.14397   1.000
    N53     N    0.76613   0.25000   0.07990   1.000
    O54     O    0.71872   0.33926   0.14386   1.000
    O55     O    0.71858   0.16074   0.14376   1.000
    N56     N    0.26669   0.25000   0.41971   1.000
    O57     O    0.21936   0.16074   0.35577   1.000
    O58     O    0.21935   0.33925   0.35578   1.000
    N59     N    0.76669   0.24999   0.41961   1.000
    O60     O    0.71938   0.16074   0.35565   1.000
    O61     O    0.71937   0.33924   0.35569   1.000
    Zr62    Zr   0.03357   0.50003   0.49999   1.000
    O63     O    0.02063   0.47643   0.53772   1.000
    O64     O    0.11195   0.41736   0.48506   1.000
    O65     O    0.10617   0.56630   0.53799   1.000
    O66     O    0.03104   0.52362   0.46225   1.000
    O67     O    0.93778   0.43373   0.46197   1.000
    O68     O    0.93197   0.58269   0.51491   1.000
    Zr69    Zr   0.03351   0.49995   0.00000   1.000
    O70     O    0.02055   0.47638   0.96224   1.000
    O71     O    0.11184   0.41730   0.01481   1.000
    O72     O    0.10608   0.56626   0.96203   1.000
    O73     O    0.03095   0.52352   0.03775   1.000
    O74     O    0.93754   0.43367   0.03791   1.000
    O75     O    0.93191   0.58262   0.98512   1.000
    Zr76    Zr   0.03358   0.99996   0.49998   1.000
    O77     O    0.02063   0.02357   0.53772   1.000
    O78     O    0.10618   0.93369   0.53799   1.000
    O79     O    0.11196   0.08264   0.48506   1.000
    O80     O    0.03105   0.97637   0.46225   1.000
    O81     O    0.93197   0.91731   0.51491   1.000
    O82     O    0.93779   0.06626   0.46197   1.000
    Zr83    Zr   0.03349   0.00007   0.00001   1.000
    O84     O    0.02053   0.02364   0.96224   1.000
    O85     O    0.11183   0.08271   0.01481   1.000
    O86     O    0.10606   0.93374   0.96203   1.000
    O87     O    0.93751   0.06635   0.03791   1.000
    O88     O    0.03093   0.97651   0.03776   1.000
    O89     O    0.93190   0.91740   0.98512   1.000
    Zr90    Zr   0.50247   0.49997   0.99995   1.000
    O91     O    0.49992   0.52354   0.03772   1.000
    O92     O    0.40862   0.58264   0.98510   1.000
    O93     O    0.41433   0.43369   0.03791   1.000
    O94     O    0.50501   0.47640   0.96219   1.000
    O95     O    0.59628   0.41732   0.01471   1.000
    O96     O    0.59058   0.56628   0.96198   1.000
    Zr97    Zr   0.50262   0.50002   0.49998   1.000
    O98     O    0.50008   0.52362   0.46225   1.000
    O99     O    0.41457   0.43373   0.46200   1.000
    O100    O    0.40876   0.58268   0.51491   1.000
    O101    O    0.50517   0.47642   0.53771   1.000
    O102    O    0.59647   0.41735   0.48501   1.000
    O103    O    0.59070   0.56630   0.53798   1.000
    Zr104   Zr   0.50246   0.00004   0.99990   1.000
    O105    O    0.59630   0.08269   0.01463   1.000
    O106    O    0.50499   0.02360   0.96214   1.000
    O107    O    0.59056   0.93372   0.96194   1.000
    O108    O    0.49991   0.97647   0.03768   1.000
    O109    O    0.40862   0.91738   0.98507   1.000
    O110    O    0.41432   0.06633   0.03788   1.000
    Zr111   Zr   0.50262   0.99997   0.49996   1.000
    O112    O    0.50008   0.97638   0.46223   1.000
    O113    O    0.40876   0.91731   0.51490   1.000
    O114    O    0.41457   0.06627   0.46198   1.000
    O115    O    0.59647   0.08264   0.48499   1.000
    O116    O    0.50518   0.02358   0.53769   1.000
    O117    O    0.59070   0.93370   0.53797   1.000
    Zr118   Zr   0.45773   0.75001   0.75017   1.000
    O119    O    0.37823   0.76185   0.80304   1.000
    O120    O    0.37827   0.76184   0.69720   1.000
    O121    O    0.37824   0.73817   0.80304   1.000
    O122    O    0.37827   0.73818   0.69720   1.000
    Zr123   Zr   0.54722   0.25000   0.25052   1.000
    O124    O    0.62684   0.26183   0.30312   1.000
    O125    O    0.62652   0.26184   0.19720   1.000
    O126    O    0.62645   0.23816   0.19716   1.000
    O127    O    0.62686   0.23816   0.30311   1.000
    Zr128   Zr   0.95776   0.75001   0.75005   1.000
    O129    O    0.87828   0.76184   0.69713   1.000
    O130    O    0.87828   0.73817   0.69713   1.000
    O131    O    0.87827   0.76184   0.80297   1.000
    O132    O    0.87827   0.73817   0.80297   1.000
    Zr133   Zr   0.04733   0.24999   0.25051   1.000
    O134    O    0.12691   0.23816   0.30316   1.000
    O135    O    0.12668   0.23816   0.19726   1.000
    O136    O    0.12690   0.26183   0.30316   1.000
    O137    O    0.12669   0.26183   0.19726   1.000
loop_
    _geom_bond_atom_site_label_1
    _geom_bond_atom_site_label_2
    _geom_bond_distance
    _geom_bond_site_symmetry_2
    _ccdc_geom_bond_type
    Zr18   O24       1.36608      .   S
    Zr7    O24       1.36608      .   S
    Zr12   O25       1.36650      .   S
    Zr5    O25       1.36650      .   S
    Zr13   O26       1.36671      .   S
    Zr4    O26       1.36671      .   S
    Zr19   O27       1.36667      .   S
    Zr6    O27       1.36667      .   S
    Zr0    O28       1.36691      .   S
    Zr21   O28       1.36691      .   S
    Zr3    O29       1.27485  1_455   S
    Zr10   O29       1.27485      .   S
    Zr1    O30       1.24611  1_455   S
    Zr20   O30       1.24611      .   S
    Zr8    O31       1.24666      .   S
    Zr1    O31       1.24666  1_455   S
    Zr9    O32       1.36728      .   S
    Zr0    O32       1.36728      .   S
    Zr11   O33       1.39305      .   S
    Zr2    O33       1.39305      .   S
    Zr14   O34       1.36760      .   S
    Zr7    O34       1.36760      .   S
    Zr15   O35       1.36708      .   S
    Zr6    O35       1.36708      .   S
    Zr16   O36       1.36715      .   S
    Zr5    O36       1.36715      .   S
    Zr17   O37       1.36698      .   S
    Zr4    O37       1.36698      .   S
    Zr22   O38       1.27539      .   S
    Zr3    O38       1.27539  1_455   S
    Zr23   O39       1.39359      .   S
    Zr2    O39       1.39359      .   S
    N41    O42       1.68539      .   S
    Zr2    O42       2.94543  1_545   S
    N41    O43       1.71856      .   S
    Zr0    O43       3.05396      .   S
    N41    O44       1.74505      .   S
    Zr2    O44       2.97503  1_545   S
    N45    O46       1.71819      .   S
    Zr0    O46       3.05331      .   S
    N45    O47       1.68488      .   S
    Zr2    O47       2.94448  1_545   S
    N45    O48       1.74483      .   S
    Zr2    O48       2.97377  1_545   S
    N50    O51       1.71885      .   S
    Zr6    O51       3.05381  1_565   S
    N50    O52       1.71894      .   S
    Zr4    O52       3.05392      .   S
    N53    O54       1.71914      .   S
    Zr5    O54       3.05420      .   S
    N53    O55       1.71860      .   S
    Zr7    O55       3.05392  1_565   S
    N56    O57       1.71898      .   S
    Zr6    O57       3.05429  1_565   S
    N56    O58       1.71890      .   S
    Zr4    O58       3.05421      .   S
    N59    O60       1.71902      .   S
    Zr7    O60       3.05391  1_565   S
    N59    O61       1.71870      .   S
    Zr5    O61       3.05394      .   S
    Zr62   O63       0.70286      .   S
    Zr8    O63       1.42335  1_655   S
    Zr62   O64       1.48514      .   S
    N56    O64       3.12043      .   S
    Zr62   O65       1.37870      .   S
    N45    O65       3.09171      .   S
    Zr62   O66       0.68921      .   S
    Zr17   O66       1.21988      .   S
    Zr62   O67       1.53665  1_455   S
    N59    O67       3.30813      .   S
    Zr62   O68       1.64233  1_455   S
    N49    O68       3.36445      .   S
    Zr69   O70       0.70306  1_554   S
    Zr20   O70       1.42365  1_655   S
    Zr69   O71       1.48432      .   S
    N50    O71       3.11824      .   S
    Zr69   O72       1.37842  1_554   S
    N41    O72       3.09155      .   S
    Zr69   O73       0.68922      .   S
    Zr13   O73       1.21945      .   S
    Zr69   O74       1.53678  1_455   S
    N53    O74       3.30789      .   S
    Zr69   O75       1.64245  1_454   S
    N40    O75       3.36527      .   S
    Zr76   O77       0.70287  1_565   S
    Zr22   O77       1.42337  1_655   S
    Zr76   O78       1.37874      .   S
    N45    O78       3.09176      .   S
    Zr76   O79       1.48510  1_565   S
    N56    O79       3.12035      .   S
    Zr76   O80       0.68921      .   S
    Zr15   O80       1.21987      .   S
    Zr76   O81       1.64224  1_455   S
    N49    O81       3.36427      .   S
    Zr76   O82       1.53668  1_465   S
    N59    O82       3.30823      .   S
    Zr83   O84       0.70309  1_554   S
    Zr10   O84       1.42374  1_655   S
    Zr83   O85       1.48415      .   S
    N50    O85       3.11809      .   S
    Zr83   O86       1.37859  1_544   S
    N41    O86       3.09183      .   S
    Zr83   O87       1.53689  1_455   S
    N53    O87       3.30759      .   S
    Zr83   O88       0.68916  1_545   S
    Zr19   O88       1.21925      .   S
    Zr83   O89       1.64240  1_444   S
    N40    O89       3.36538      .   S
    Zr90   O91       0.68946  1_556   S
    Zr12   O91       1.33820      .   S
    Zr90   O92       1.58711      .   S
    N41    O92       3.21369      .   S
    Zr90   O93       1.48098  1_556   S
    N50    O93       3.17263      .   S
    Zr90   O94       0.68938      .   S
    Zr21   O94       1.33798      .   S
    Zr90   O95       1.58648  1_556   S
    N53    O95       3.21093      .   S
    Zr90   O96       1.48100      .   S
    N40    O96       3.17305      .   S
    Zr97   O98       0.68917      .   S
    Zr16   O98       1.33785      .   S
    Zr97   O99       1.48091      .   S
    N56    O99       3.17332      .   S
    Zr97   O100      1.58725      .   S
    N45    O100      3.21343      .   S
    Zr97   O101      0.68927      .   S
    Zr9    O101      1.33802      .   S
    Zr97   O102      1.58738      .   S
    N59    O102      3.21419      .   S
    Zr97   O103      1.48104      .   S
    N49    O103      3.17323      .   S
    Zr104  O105      1.58642  1_556   S
    N53    O105      3.21098      .   S
    Zr104  O106      0.68934      .   S
    Zr11   O106      1.33787      .   S
    Zr104  O107      1.48113  1_545   S
    N40    O107      3.17327      .   S
    Zr104  O108      0.68969  1_546   S
    Zr18   O108      1.33850      .   S
    Zr104  O109      1.58689  1_545   S
    N41    O109      3.21347      .   S
    Zr104  O110      1.48119  1_556   S
    N50    O110      3.17270      .   S
    Zr111  O112      0.68909      .   S
    Zr14   O112      1.33775      .   S
    Zr111  O113      1.58716      .   S
    N45    O113      3.21331      .   S
    Zr111  O114      1.48098  1_565   S
    N56    O114      3.17348      .   S
    Zr111  O115      1.58723  1_565   S
    N59    O115      3.21388      .   S
    Zr111  O116      0.68929  1_565   S
    Zr23   O116      1.33808      .   S
    Zr111  O117      1.48114      .   S
    N49    O117      3.17335      .   S
    Zr118  O119      1.21470      .   S
    N41    O119      2.39858      .   S
    Zr118  O120      1.21605      .   S
    N45    O120      2.40049      .   S
    Zr118  O121      1.21468      .   S
    N41    O121      2.39859      .   S
    Zr118  O122      1.21604      .   S
    N45    O122      2.40049      .   S
    Zr123  O124      1.21321      .   S
    N59    O124      2.39719      .   S
    Zr123  O125      1.21811      .   S
    N53    O125      2.40429      .   S
    Zr123  O126      1.21802      .   S
    N53    O126      2.40429      .   S
    Zr123  O127      1.21325      .   S
    N59    O127      2.39721      .   S
    Zr128  O129      1.21569      .   S
    N49    O129      2.39996      .   S
    Zr128  O130      1.21568      .   S
    N49    O130      2.39996      .   S
    Zr128  O131      1.21511      .   S
    N40    O131      2.39918      .   S
    Zr128  O132      1.21511      .   S
    N40    O132      2.39917      .   S
    Zr133  O134      1.21351      .   S
    N56    O134      2.39730      .   S
    Zr133  O135      1.21775      .   S
    N50    O135      2.40368      .   S
    Zr133  O136      1.21349      .   S
    N56    O136      2.39730      .   S
    Zr133  O137      1.21774      .   S
    N50    O137      2.40368      .   S
