# CIF file generated by openbabel 2.4.90, see http://openbabel.sf.net
data_I
_chemical_name_common ''
_cell_length_a 20.652
_cell_length_b 13.157
_cell_length_c 17.994
_cell_angle_alpha 79.403
_cell_angle_beta 86.853
_cell_angle_gamma 78.876
_space_group_name_H-M_alt 'P 1'
_space_group_name_Hall 'P 1'
loop_
    _symmetry_equiv_pos_as_xyz
    x,y,z
loop_
    _atom_site_label
    _atom_site_type_symbol
    _atom_site_fract_x
    _atom_site_fract_y
    _atom_site_fract_z
    _atom_site_occupancy
    N0      N    0.99459   0.37680   0.81980   1.000
    N1      N    0.49461   0.37680   0.81981   1.000
    N2      N    0.00528   0.62319   0.18019   1.000
    N3      N    0.50537   0.62320   0.18019   1.000
    N4      N    0.49999   0.00000   0.49999   1.000
    N5      N    0.99999   1.00000   0.49999   1.000
    N6      N    0.69639   0.11430   0.72612   1.000
    N7      N    0.19640   0.11430   0.72611   1.000
    N8      N    0.80358   0.88570   0.27386   1.000
    N9      N    0.30359   0.88571   0.27387   1.000
    N10     N    0.25000   0.00000   0.49999   1.000
    N11     N    0.74999   0.00000   0.49999   1.000
    Zr12    Zr   0.74999   0.50000   0.50000   1.000
    O13     O    0.73380   0.38502   0.56901   1.000
    O14     O    0.75309   0.63739   0.51084   1.000
    O15     O    0.82585   0.36207   0.50152   1.000
    O16     O    0.76617   0.61497   0.43098   1.000
    O17     O    0.67412   0.63792   0.49848   1.000
    O18     O    0.74689   0.36260   0.48916   1.000
    Zr19    Zr   0.96680   0.91203   0.79877   1.000
    O20     O    0.97755   0.75997   0.79748   1.000
    O21     O    0.97608   0.83684   0.91022   1.000
    O22     O    0.03259   0.97734   0.77528   1.000
    Zr23    Zr   0.03318   0.08797   0.20123   1.000
    O24     O    0.96739   0.02266   0.22470   1.000
    O25     O    0.02387   0.16315   0.08978   1.000
    O26     O    0.02206   0.24003   0.20252   1.000
    Zr27    Zr   0.46681   0.91203   0.79877   1.000
    O28     O    0.53259   0.97734   0.77529   1.000
    O29     O    0.47756   0.75997   0.79748   1.000
    O30     O    0.47611   0.83685   0.91022   1.000
    Zr31    Zr   0.53317   0.08798   0.20120   1.000
    O32     O    0.52243   0.24003   0.20250   1.000
    O33     O    0.52387   0.16316   0.08976   1.000
    O34     O    0.46739   0.02267   0.22469   1.000
    Zr35    Zr   0.25000   0.50000   0.50000   1.000
    O36     O    0.17413   0.63792   0.49848   1.000
    O37     O    0.32586   0.36208   0.50152   1.000
    O38     O    0.25310   0.63740   0.51084   1.000
    O39     O    0.24690   0.36260   0.48912   1.000
    O40     O    0.23381   0.38502   0.56900   1.000
    O41     O    0.26618   0.61498   0.43099   1.000
    O42     O    0.61374   0.02947   0.22255   1.000
    O43     O    0.11374   0.02947   0.22257   1.000
    O44     O    0.38625   0.97053   0.77743   1.000
    O45     O    0.88624   0.97053   0.77743   1.000
loop_
    _geom_bond_atom_site_label_1
    _geom_bond_atom_site_label_2
    _geom_bond_distance
    _geom_bond_site_symmetry_2
    _ccdc_geom_bond_type
    Zr12   O13       1.84413      .   S
    N6     O13       4.28895      .   S
    Zr12   O14       1.86700      .   S
    N11    O14       4.72692  1_545   S
    Zr12   O15       2.15357      .   S
    N5     O15       5.39028  1_565   S
    Zr12   O16       1.84414      .   S
    N8     O16       4.28903      .   S
    Zr12   O17       2.15354      .   S
    N4     O17       5.39018  1_545   S
    Zr12   O18       1.86700      .   S
    N11    O18       4.72693      .   S
    Zr19   O20       1.97422      .   S
    N0     O20       4.92808      .   S
    Zr19   O21       2.06789      .   S
    N2     O21       5.14877  1_454   S
    Zr19   O22       1.73690  1_655   S
    N7     O22       4.11239  1_545   S
    Zr23   O24       1.73687  1_455   S
    N8     O24       4.11240  1_565   S
    Zr23   O25       2.06795      .   S
    N0     O25       5.14895  1_656   S
    Zr23   O26       1.97356      .   S
    N2     O26       4.92875      .   S
    Zr27   O28       1.73675      .   S
    N6     O28       4.11213  1_545   S
    Zr27   O29       1.97421      .   S
    N1     O29       4.92804      .   S
    Zr27   O30       2.06794      .   S
    N3     O30       5.14885  1_554   S
    Zr31   O32       1.97424      .   S
    N3     O32       4.92806      .   S
    Zr31   O33       2.06773      .   S
    N1     O33       5.14855  1_556   S
    Zr31   O34       1.73679      .   S
    N9     O34       4.11221  1_565   S
    Zr35   O36       2.15356      .   S
    N5     O36       5.39025  1_655   S
    Zr35   O37       2.15353      .   S
    N4     O37       5.39019      .   S
    Zr35   O38       1.86700      .   S
    N10    O38       4.72693  1_545   S
    Zr35   O39       1.86719      .   S
    N10    O39       4.72682      .   S
    Zr35   O40       1.84406      .   S
    N7     O40       4.28895      .   S
    Zr35   O41       1.84413      .   S
    N9     O41       4.28899      .   S
    Zr31   O42       1.72499      .   S
    N8     O42       4.08607  1_565   S
    Zr23   O43       1.72495      .   S
    N9     O43       4.08602  1_565   S
    Zr27   O44       1.72498      .   S
    N7     O44       4.08608  1_545   S
    Zr19   O45       1.72497      .   S
    N6     O45       4.08606  1_545   S
