# CIF file generated by openbabel 2.4.90, see http://openbabel.sf.net
data_I
_chemical_name_common ''
_cell_length_a 13.941
_cell_length_b 20.677
_cell_length_c 22.214
_cell_angle_alpha 89.995
_cell_angle_beta 90.511
_cell_angle_gamma 101.284
_space_group_name_H-M_alt 'P 1'
_space_group_name_Hall 'P 1'
loop_
    _symmetry_equiv_pos_as_xyz
    x,y,z
loop_
    _atom_site_label
    _atom_site_type_symbol
    _atom_site_fract_x
    _atom_site_fract_y
    _atom_site_fract_z
    _atom_site_occupancy
    H0      H    0.00137   0.28254   0.06389   1.000
    H1      H    0.63676   0.69992   0.66353   1.000
    H2      H    0.98800   0.61513   0.80534   1.000
    H3      H    0.51399   0.31369   0.08098   1.000
    H4      H    0.17671   0.27136   0.06089   1.000
    H5      H    0.96600   0.52913   0.88417   1.000
    H6      H    0.58616   0.65939   0.40449   1.000
    H7      H    0.56421   0.56967   0.32722   1.000
    H8      H    0.94699   0.76453   0.64074   1.000
    H9      H    0.60111   0.42210   0.15985   1.000
    H10     H    0.89628   0.53243   0.14616   1.000
    H11     H    0.34077   0.32311   0.09423   1.000
    H12     H    0.98167   0.69441   0.72491   1.000
    H13     H    0.87840   0.73441   0.34380   1.000
    H14     H    0.56878   0.49120   0.24534   1.000
    H15     H    0.65287   0.50230   0.86784   1.000
    H16     H    0.05755   0.45408   0.96279   1.000
    H17     H    0.33878   0.38519   0.90792   1.000
    H18     H    0.51393   0.37404   0.90307   1.000
    H19     H    0.23437   0.45023   0.95550   1.000
    H20     H    0.99812   0.78101   0.43887   1.000
    H21     H    0.63653   0.19887   0.83646   1.000
    H22     H    0.98826   0.11847   0.69584   1.000
    H23     H    0.51141   0.81382   0.41832   1.000
    H24     H    0.17377   0.77007   0.44070   1.000
    H25     H    0.96718   0.03179   0.61728   1.000
    H26     H    0.58793   0.15965   0.09413   1.000
    H27     H    0.56530   0.07008   0.17134   1.000
    H28     H    0.94661   0.26701   0.86021   1.000
    H29     H    0.60049   0.92239   0.33906   1.000
    H30     H    0.89598   0.03213   0.35661   1.000
    H31     H    0.33748   0.82277   0.40534   1.000
    H32     H    0.98141   0.19770   0.77591   1.000
    H33     H    0.88015   0.23422   0.15836   1.000
    H34     H    0.56894   0.99173   0.25323   1.000
    H35     H    0.65401   0.00111   0.63248   1.000
    H36     H    0.05952   0.95532   0.53644   1.000
    H37     H    0.34167   0.88621   0.59144   1.000
    H38     H    0.51704   0.87510   0.59610   1.000
    H39     H    0.23677   0.95177   0.54240   1.000
    H40     H    0.00000   0.21901   0.56110   1.000
    H41     H    0.36349   0.80115   0.16353   1.000
    H42     H    0.01177   0.88156   0.30414   1.000
    H43     H    0.48862   0.18621   0.58166   1.000
    H44     H    0.82627   0.22997   0.55923   1.000
    H45     H    0.03285   0.96823   0.38270   1.000
    H46     H    0.41210   0.84038   0.90587   1.000
    H47     H    0.43473   0.92995   0.82866   1.000
    H48     H    0.05341   0.73302   0.13977   1.000
    H49     H    0.39953   0.07765   0.66094   1.000
    H50     H    0.10406   0.96788   0.64330   1.000
    H51     H    0.66255   0.17726   0.59464   1.000
    H52     H    0.01861   0.80233   0.22400   1.000
    H53     H    0.11990   0.76578   0.84162   1.000
    H54     H    0.43108   0.00831   0.74677   1.000
    H55     H    0.34602   0.99890   0.36750   1.000
    H56     H    0.94050   0.04469   0.46356   1.000
    H57     H    0.65836   0.11381   0.40855   1.000
    H58     H    0.48298   0.12492   0.40382   1.000
    H59     H    0.76325   0.04825   0.45751   1.000
    H60     H    0.99868   0.71749   0.93612   1.000
    H61     H    0.36330   0.30008   0.33648   1.000
    H62     H    0.01212   0.38491   0.19467   1.000
    H63     H    0.48606   0.68634   0.91901   1.000
    H64     H    0.82334   0.72867   0.93911   1.000
    H65     H    0.03411   0.47090   0.11584   1.000
    H66     H    0.41387   0.34061   0.59551   1.000
    H67     H    0.43583   0.43033   0.67278   1.000
    H68     H    0.05307   0.23552   0.35925   1.000
    H69     H    0.39893   0.57791   0.84015   1.000
    H70     H    0.10375   0.46759   0.85382   1.000
    H71     H    0.65929   0.67692   0.90570   1.000
    H72     H    0.01842   0.30566   0.27508   1.000
    H73     H    0.12162   0.26561   0.65618   1.000
    H74     H    0.43127   0.50880   0.75466   1.000
    H75     H    0.34724   0.49774   0.13216   1.000
    H76     H    0.94248   0.54593   0.03719   1.000
    H77     H    0.66125   0.61482   0.09207   1.000
    H78     H    0.48610   0.62597   0.09691   1.000
    H79     H    0.76566   0.54978   0.04448   1.000
    C80     C    0.79685   0.45606   0.92661   1.000
    C81     C    0.32404   0.35432   0.00161   1.000
    C82     C    0.83213   0.60796   0.79096   1.000
    C83     C    0.73897   0.57567   0.80987   1.000
    C84     C    0.82814   0.65507   0.74195   1.000
    C85     C    0.22037   0.35968   0.00673   1.000
    C86     C    0.73297   0.70183   0.37881   1.000
    C87     C    0.05614   0.31843   0.04059   1.000
    C88     C    0.70972   0.60169   0.29126   1.000
    C89     C    0.73204   0.65814   0.72387   1.000
    C90     C    0.71131   0.69791   0.67723   1.000
    C91     C    0.79052   0.73589   0.64656   1.000
    C92     C    0.62348   0.12971   0.44812   1.000
    C93     C    0.52633   0.13623   0.44490   1.000
    C94     C    0.81377   0.08771   0.48008   1.000
    C95     C    0.20323   0.54397   0.07339   1.000
    C96     C    0.91448   0.59113   0.81847   1.000
    C97     C    0.74520   0.75563   0.42535   1.000
    C98     C    0.79705   0.64870   0.29706   1.000
    C99     C    0.47188   0.32862   0.04375   1.000
    C100    C    0.80433   0.56416   0.21362   1.000
    C101    C    0.15365   0.31289   0.03881   1.000
    C102    C    0.90211   0.54244   0.86270   1.000
    C103    C    0.76643   0.43075   0.09489   1.000
    C104    C    0.64500   0.65549   0.37361   1.000
    C105    C    0.63283   0.60544   0.33030   1.000
    C106    C    0.80850   0.51005   0.88041   1.000
    C107    C    0.75009   0.47267   0.14764   1.000
    C108    C    0.71350   0.55372   0.24291   1.000
    C109    C    0.88674   0.73400   0.66443   1.000
    C110    C    0.65844   0.46213   0.17581   1.000
    C111    C    0.82490   0.52421   0.16743   1.000
    C112    C    0.37462   0.33341   0.05041   1.000
    C113    C    0.90610   0.69437   0.71199   1.000
    C114    C    0.81043   0.69833   0.33977   1.000
    C115    C    0.64005   0.50142   0.22376   1.000
    C116    C    0.77371   0.77827   0.59410   1.000
    C117    C    0.72526   0.52744   0.85388   1.000
    C118    C    0.08670   0.41409   0.98329   1.000
    C119    C    0.37488   0.36954   0.94751   1.000
    C120    C    0.47195   0.36300   0.94423   1.000
    C121    C    0.18513   0.41142   0.97916   1.000
    C122    C    0.79865   0.95643   0.57457   1.000
    C123    C    0.32393   0.85459   0.49788   1.000
    O124    O    0.67044   0.76095   0.45580   1.000
    O125    O    0.85446   0.43344   0.07804   1.000
    O126    O    0.70991   0.42885   0.94050   1.000
    O127    O    0.83010   0.79197   0.42995   1.000
    O128    O    0.87514   0.44173   0.94803   1.000
    C129    C    0.83235   0.10928   0.70963   1.000
    C130    C    0.73938   0.07575   0.69051   1.000
    C131    C    0.82806   0.15642   0.75851   1.000
    C132    C    0.22005   0.85983   0.49307   1.000
    C133    C    0.73473   0.20185   0.12157   1.000
    C134    C    0.05412   0.81751   0.46115   1.000
    C135    C    0.71069   0.10193   0.20909   1.000
    C136    C    0.73193   0.15835   0.77628   1.000
    C137    C    0.71110   0.19775   0.82296   1.000
    C138    C    0.79022   0.23658   0.85395   1.000
    C139    C    0.91494   0.09347   0.68246   1.000
    C140    C    0.74685   0.25553   0.07505   1.000
    C141    C    0.79824   0.14877   0.20434   1.000
    C142    C    0.47045   0.82882   0.45560   1.000
    C143    C    0.80447   0.06426   0.28812   1.000
    C144    C    0.15177   0.81214   0.46226   1.000
    C145    C    0.90313   0.04443   0.63840   1.000
    C146    C    0.76541   0.93066   0.40620   1.000
    C147    C    0.64661   0.15565   0.12576   1.000
    C148    C    0.63403   0.10573   0.16895   1.000
    C149    C    0.80975   0.01079   0.62051   1.000
    C150    C    0.74956   0.97268   0.35325   1.000
    C151    C    0.71389   0.05396   0.25756   1.000
    C152    C    0.88643   0.23588   0.83628   1.000
    C153    C    0.65809   0.96230   0.32384   1.000
    C154    C    0.82469   0.02408   0.33444   1.000
    C155    C    0.37291   0.83346   0.44905   1.000
    C156    C    0.90587   0.19664   0.78866   1.000
    C157    C    0.81204   0.19827   0.16160   1.000
    C158    C    0.64013   0.00175   0.27571   1.000
    C159    C    0.77339   0.27844   0.90662   1.000
    C160    C    0.72621   0.02719   0.64666   1.000
    C161    C    0.08759   0.91477   0.51647   1.000
    C162    C    0.37655   0.87031   0.55186   1.000
    C163    C    0.47369   0.86378   0.55508   1.000
    C164    C    0.18626   0.91231   0.51991   1.000
    C165    C    0.20139   0.04358   0.42542   1.000
    C166    C    0.67610   0.14544   0.50210   1.000
    C167    C    0.16768   0.89074   0.29035   1.000
    C168    C    0.26065   0.92426   0.30947   1.000
    C169    C    0.17197   0.84359   0.24147   1.000
    C170    C    0.77998   0.14020   0.50691   1.000
    C171    C    0.26531   0.79817   0.87842   1.000
    C172    C    0.94591   0.18251   0.53880   1.000
    C173    C    0.28934   0.89810   0.79090   1.000
    C174    C    0.26810   0.84167   0.22370   1.000
    C175    C    0.28892   0.80226   0.17702   1.000
    C176    C    0.20981   0.76344   0.14603   1.000
    C177    C    0.08508   0.90655   0.31752   1.000
    C178    C    0.25320   0.74449   0.92493   1.000
    C179    C    0.20180   0.85125   0.79565   1.000
    C180    C    0.52958   0.17120   0.54438   1.000
    C181    C    0.19557   0.93576   0.71187   1.000
    C182    C    0.84826   0.18788   0.53772   1.000
    C183    C    0.09690   0.95559   0.36158   1.000
    C184    C    0.23462   0.06936   0.59377   1.000
    C185    C    0.35343   0.84437   0.87424   1.000
    C186    C    0.36600   0.89430   0.83105   1.000
    C187    C    0.19028   0.98923   0.37947   1.000
    C188    C    0.25048   0.02734   0.64674   1.000
    C189    C    0.28614   0.94607   0.74244   1.000
    C190    C    0.11360   0.76415   0.16370   1.000
    C191    C    0.34193   0.03773   0.67610   1.000
    C192    C    0.17534   0.97594   0.66555   1.000
    C193    C    0.62712   0.16657   0.55093   1.000
    C194    C    0.09415   0.80338   0.21132   1.000
    C195    C    0.18801   0.80175   0.83838   1.000
    C196    C    0.35989   0.99828   0.72429   1.000
    C197    C    0.22664   0.72158   0.09336   1.000
    C198    C    0.27382   0.97283   0.35333   1.000
    C199    C    0.91243   0.08525   0.48352   1.000
    C200    C    0.67600   0.64571   0.99837   1.000
    C201    C    0.16798   0.39208   0.20905   1.000
    C202    C    0.26115   0.42438   0.19014   1.000
    C203    C    0.17196   0.34497   0.25800   1.000
    C204    C    0.77967   0.64034   0.99320   1.000
    C205    C    0.26706   0.29818   0.62118   1.000
    C206    C    0.94391   0.68159   0.95941   1.000
    C207    C    0.29032   0.39832   0.70873   1.000
    C208    C    0.26806   0.34189   0.27613   1.000
    C209    C    0.28876   0.30211   0.32277   1.000
    C210    C    0.20954   0.26414   0.35344   1.000
    C211    C    0.08564   0.40891   0.18150   1.000
    C212    C    0.25483   0.24439   0.57463   1.000
    C213    C    0.20298   0.35131   0.70290   1.000
    C214    C    0.52817   0.67141   0.95623   1.000
    C215    C    0.19570   0.43585   0.78636   1.000
    C216    C    0.84640   0.68714   0.96119   1.000
    C217    C    0.09800   0.45759   0.13726   1.000
    C218    C    0.23360   0.56927   0.90510   1.000
    C219    C    0.35503   0.34452   0.62639   1.000
    C220    C    0.36721   0.39456   0.66961   1.000
    C221    C    0.19161   0.48999   0.11900   1.000
    C222    C    0.24995   0.52734   0.85235   1.000
    C223    C    0.28654   0.44629   0.75709   1.000
    C224    C    0.11332   0.26604   0.33556   1.000
    C225    C    0.34160   0.53788   0.82418   1.000
    C226    C    0.17513   0.47580   0.83255   1.000
    C227    C    0.62543   0.66662   0.94958   1.000
    C228    C    0.09398   0.30568   0.28800   1.000
    C229    C    0.18960   0.30168   0.66021   1.000
    C230    C    0.36000   0.49859   0.77620   1.000
    C231    C    0.22633   0.22174   0.40590   1.000
    C232    C    0.27485   0.47261   0.14613   1.000
    C233    C    0.91333   0.58592   0.01670   1.000
    C234    C    0.62515   0.63048   0.05247   1.000
    C235    C    0.52809   0.63702   0.05570   1.000
    C236    C    0.81490   0.58859   0.02083   1.000
    S237    S    0.64545   0.60402   0.76820   1.000
    S238    S    0.88404   0.63566   0.24244   1.000
    S239    S    0.64556   0.10302   0.73185   1.000
    S240    S    0.88449   0.13577   0.26050   1.000
    S241    S    0.35447   0.89700   0.26814   1.000
    S242    S    0.11555   0.86425   0.73948   1.000
    S243    S    0.35467   0.39598   0.23179   1.000
    S244    S    0.11599   0.36435   0.75755   1.000
    N245    N    0.02272   0.36802   0.01309   1.000
    N246    N    0.51998   0.34279   0.99140   1.000
    N247    N    0.02212   0.86778   0.48800   1.000
    N248    N    0.52020   0.84334   0.50781   1.000
    N249    N    0.97791   0.13223   0.51193   1.000
    N250    N    0.47983   0.15668   0.49217   1.000
    N251    N    0.97732   0.63200   0.98690   1.000
    N252    N    0.48007   0.65724   0.00851   1.000
    O253    O    0.69042   0.39685   0.07036   1.000
    O254    O    0.68753   0.78894   0.58578   1.000
    O255    O    0.84790   0.79998   0.56184   1.000
    O256    O    0.97089   0.61948   0.27079   1.000
    O257    O    0.59150   0.64121   0.80713   1.000
    O258    O    0.58943   0.55075   0.73163   1.000
    O259    O    0.89555   0.68820   0.19748   1.000
    O260    O    0.67168   0.26109   0.04410   1.000
    O261    O    0.85329   0.93349   0.42443   1.000
    O262    O    0.71182   0.92916   0.55948   1.000
    O263    O    0.83195   0.29159   0.07093   1.000
    O264    O    0.87707   0.94193   0.55443   1.000
    O265    O    0.68912   0.89677   0.42965   1.000
    O266    O    0.68711   0.28887   0.91420   1.000
    O267    O    0.84752   0.30002   0.93976   1.000
    O268    O    0.97187   0.11953   0.23392   1.000
    O269    O    0.58927   0.13895   0.69260   1.000
    O270    O    0.59170   0.04956   0.76850   1.000
    O271    O    0.89515   0.18839   0.30544   1.000
    O272    O    0.32837   0.73893   0.95581   1.000
    O273    O    0.14674   0.06653   0.57555   1.000
    O274    O    0.28821   0.07085   0.44050   1.000
    O275    O    0.16810   0.70842   0.92905   1.000
    O276    O    0.12296   0.05809   0.44556   1.000
    O277    O    0.31092   0.10324   0.57034   1.000
    O278    O    0.31291   0.71116   0.08578   1.000
    O279    O    0.15250   0.70000   0.06023   1.000
    O280    O    0.02817   0.88048   0.76600   1.000
    O281    O    0.41077   0.86107   0.30735   1.000
    O282    O    0.40833   0.95045   0.23148   1.000
    O283    O    0.10490   0.81163   0.69454   1.000
    O284    O    0.32958   0.23906   0.54411   1.000
    O285    O    0.14557   0.56657   0.92195   1.000
    O286    O    0.29017   0.57120   0.05949   1.000
    O287    O    0.16993   0.20805   0.57004   1.000
    O288    O    0.12493   0.55828   0.05196   1.000
    O289    O    0.30961   0.60316   0.92963   1.000
    O290    O    0.31251   0.21107   0.41421   1.000
    O291    O    0.15214   0.20004   0.43815   1.000
    O292    O    0.02914   0.38053   0.72919   1.000
    O293    O    0.40852   0.35875   0.19284   1.000
    O294    O    0.41082   0.44922   0.26834   1.000
    O295    O    0.10448   0.31182   0.80251   1.000
loop_
    _geom_bond_atom_site_label_1
    _geom_bond_atom_site_label_2
    _geom_bond_distance
    _geom_bond_site_symmetry_2
    _ccdc_geom_bond_type
    C81    C85       1.47642      .   S
    C81    C112      1.40171      .   S
    C81    C119      1.40480  1_554   S
    C85    C101      1.40307      .   S
    C85    C121      1.40047  1_554   S
    N252   C235      1.34861      .   S
    N252   C214      1.34953  1_554   S
    N245   C87       1.35032      .   S
    N245   C118      1.34874  1_554   S
    C233   C236      1.38793      .   S
    C233   H76       1.08822      .   S
    C233   N251      1.34882  1_554   S
    C236   H79       1.08722      .   S
    C236   C204      1.40107  1_554   S
    C101   C87       1.38726      .   S
    C101   H4        1.08927      .   S
    C87    H0        1.08951      .   S
    C99    C112      1.38791      .   S
    C99    H3        1.08911      .   S
    C99    N246      1.35081  1_554   S
    O260   C140      1.27212      .   S
    C112   H11       1.08830      .   S
    O288   C95       1.27390      .   S
    C234   C235      1.38849      .   S
    C234   H77       1.08983      .   S
    C234   C200      1.40487  1_554   S
    C235   H78       1.09087      .   S
    O286   C95       1.27318      .   S
    O279   C197      1.27080      .   S
    O253   C103      1.26895      .   S
    O263   C140      1.27576      .   S
    C95    C221      1.49354      .   S
    C140   C133      1.50265      .   S
    O125   C103      1.27698      .   S
    O278   C197      1.27535      .   S
    C197   C176      1.50260      .   S
    H26    C147      1.08896      .   S
    C103   C107      1.50295      .   S
    H65    C217      1.08805      .   S
    C221   C217      1.40836      .   S
    C221   C232      1.41063      .   S
    C133   C147      1.40471      .   S
    C133   C157      1.40421      .   S
    C147   C148      1.39596      .   S
    H75    C232      1.08868      .   S
    C217   C211      1.39409      .   S
    H48    C190      1.08704      .   S
    C176   C190      1.40365      .   S
    C176   C175      1.40528      .   S
    C232   C202      1.38396      .   S
    H10    C111      1.08838      .   S
    C107   C111      1.40487      .   S
    C107   C110      1.40596      .   S
    H33    C157      1.08840      .   S
    H9     C110      1.08884      .   S
    C157   C141      1.38273      .   S
    H41    C175      1.08900      .   S
    C190   C194      1.39351      .   S
    C111   C100      1.38402      .   S
    C148   H27       1.09036      .   S
    C148   C135      1.39973      .   S
    C110   C115      1.39530      .   S
    C175   C174      1.38614      .   S
    C211   H62       1.09026      .   S
    C211   C201      1.39905      .   S
    C202   C201      1.40700      .   S
    C202   S243      1.78285      .   S
    O293   S243      1.46377      .   S
    O259   S238      1.46208      .   S
    C141   C135      1.40656      .   S
    C141   S240      1.78162      .   S
    C201   C203      1.46777      .   S
    C135   C151      1.47018      .   S
    C194   H52       1.08863      .   S
    C194   C169      1.39676      .   S
    C100   S238      1.78181      .   S
    C100   C108      1.40760      .   S
    C174   C169      1.40847      .   S
    C174   S241      1.78136      .   S
    C115   C108      1.39927      .   S
    C115   H14       1.08995      .   S
    O282   S241      1.46104      .   S
    S243   O294      1.46130      .   S
    S243   C208      1.78077      .   S
    O268   S240      1.45544      .   S
    C169   C167      1.46863      .   S
    S238   O256      1.45587      .   S
    S238   C98       1.78035      .   S
    C108   C88       1.47029      .   S
    H34    C158      1.08995  1_565   S
    C151   C158      1.39925      .   S
    C151   C143      1.40717      .   S
    C203   C208      1.40884      .   S
    C203   C228      1.39749      .   S
    S240   C143      1.78152      .   S
    S240   O271      1.46178      .   S
    S241   O281      1.46365      .   S
    S241   C168      1.78377      .   S
    H72    C228      1.08924      .   S
    C158   C153      1.39511  1_545   S
    C208   C209      1.38592      .   S
    C228   C224      1.39350      .   S
    C143   C154      1.38384      .   S
    C167   C168      1.40690      .   S
    C167   C177      1.39887      .   S
    C88    C98       1.40634      .   S
    C88    C105      1.39870      .   S
    C98    C114      1.38213      .   S
    H42    C177      1.09000      .   S
    C168   C198      1.38423      .   S
    C177   C183      1.39472      .   S
    C209   H61       1.08900      .   S
    C209   C210      1.40511      .   S
    C153   H29       1.08892      .   S
    C153   C150      1.40599      .   S
    H7     C105      1.09034      .   S
    C105   C104      1.39776      .   S
    C154   C150      1.40480  1_545   S
    C154   H30       1.08830      .   S
    C224   C210      1.40352      .   S
    C224   H68       1.08691      .   S
    C114   H13       1.08829      .   S
    C114   C86       1.40383      .   S
    C150   C146      1.50257      .   S
    C198   H55       1.08855      .   S
    C198   C187      1.40536      .   S
    C210   C231      1.50213      .   S
    C183   C187      1.40460      .   S
    C183   H45       1.08835      .   S
    C104   C86       1.40470      .   S
    C104   H6        1.08898      .   S
    C86    C97       1.50260      .   S
    C187   C165      1.50275  1_565   S
    H58    C93       1.08978      .   S
    H31    C155      1.08830      .   S
    C231   O290      1.27512      .   S
    C231   O291      1.27122      .   S
    C146   O261      1.27728      .   S
    C146   O265      1.26953      .   S
    H57    C92       1.08971      .   S
    H23    C142      1.08903      .   S
    C97    O127      1.27506      .   S
    C97    O124      1.27017      .   S
    C165   O274      1.27320      .   S
    C165   O276      1.27379      .   S
    H20    C134      1.08943  1_655   S
    H24    C144      1.08969      .   S
    C93    C92       1.38825      .   S
    C93    N250      1.34942      .   S
    C92    C166      1.40458      .   S
    C155   C142      1.38812      .   S
    C155   C123      1.40133      .   S
    C142   N248      1.34923      .   S
    H59    C94       1.08717      .   S
    C134   C144      1.38731      .   S
    C134   N247      1.34969      .   S
    C144   C132      1.40281      .   S
    H56    C199      1.08828      .   S
    C94    C199      1.38776      .   S
    C94    C170      1.40015      .   S
    C199   N249      1.34841      .   S
    N247   C161      1.34898      .   S
    N250   C180      1.34927      .   S
    C132   C123      1.47613      .   S
    C132   C164      1.40017      .   S
    C123   C162      1.40454      .   S
    C166   C170      1.47613      .   S
    C166   C193      1.40133      .   S
    C170   C182      1.40287      .   S
    N248   C163      1.34943      .   S
    N249   C172      1.34998      .   S
    C161   C164      1.38776      .   S
    C161   H36       1.08832      .   S
    C164   H39       1.08631      .   S
    C182   C172      1.38730      .   S
    C182   H44       1.08929      .   S
    C172   H40       1.07445  1_655   S
    O284   C212      1.27100      .   S
    C180   C193      1.38814      .   S
    C180   H43       1.08902      .   S
    C193   H51       1.08832      .   S
    C162   C163      1.38825      .   S
    C162   H37       1.08988      .   S
    O264   C122      1.27378      .   S
    C163   H38       1.08863      .   S
    O262   C122      1.27327      .   S
    O255   C116      1.27131      .   S
    O287   C212      1.27503      .   S
    O277   C184      1.26934      .   S
    C122   C149      1.50265  1_565   S
    C212   C205      1.50271      .   S
    O273   C184      1.27721      .   S
    O254   C116      1.27517      .   S
    C184   C188      1.50285      .   S
    C116   C91       1.50206      .   S
    H66    C219      1.08902      .   S
    H25    C145      1.08836      .   S
    C149   C145      1.40460      .   S
    C149   C160      1.40543      .   S
    C205   C219      1.40472      .   S
    C205   C229      1.40375      .   S
    C219   C220      1.39635      .   S
    H35    C160      1.08862      .   S
    C145   C139      1.39475      .   S
    H8     C109      1.08685      .   S
    H50    C192      1.08905      .   S
    C91    C109      1.40349      .   S
    C91    C90       1.40504      .   S
    C160   C130      1.38409      .   S
    C188   C192      1.40482  1_545   S
    C188   C191      1.40543      .   S
    H73    C229      1.08828      .   S
    C229   C213      1.38180      .   S
    H49    C191      1.08850      .   S
    H1     C90       1.08896      .   S
    C109   C113      1.39345      .   S
    C192   C181      1.38381      .   S
    C220   H67       1.09045      .   S
    C220   C207      1.39988      .   S
    C191   C196      1.39611  1_545   S
    C90    C89       1.38587      .   S
    C139   H22       1.09000      .   S
    C139   C129      1.39885      .   S
    C130   C129      1.40690      .   S
    C130   S239      1.78390      .   S
    O269   S239      1.46415      .   S
    O283   S242      1.46172      .   S
    C213   C207      1.40639      .   S
    C213   S244      1.78084      .   S
    C207   C223      1.47046      .   S
    C129   C131      1.46865      .   S
    C181   S242      1.78147      .   S
    C181   C189      1.40722      .   S
    C113   H12       1.08927      .   S
    C113   C84       1.39698      .   S
    C89    C84       1.40856      .   S
    C89    S237      1.78081      .   S
    C196   C189      1.39926      .   S
    C196   H54       1.08991  1_565   S
    O292   S244      1.45597      .   S
    O258   S237      1.46130      .   S
    S239   O270      1.46092      .   S
    S239   C136      1.78124      .   S
    S242   O280      1.45488      .   S
    S242   C179      1.78177      .   S
    C84    C82       1.46874      .   S
    C189   C173      1.47005      .   S
    H74    C230      1.08961      .   S
    C223   C230      1.39898      .   S
    C223   C215      1.40745      .   S
    S244   C215      1.78175      .   S
    S244   O295      1.46204      .   S
    C131   C136      1.40846      .   S
    C131   C156      1.39679      .   S
    S237   O257      1.46384      .   S
    S237   C83       1.78262      .   S
    H32    C156      1.08904      .   S
    C230   C225      1.39585      .   S
    C136   C137      1.38614      .   S
    C215   C226      1.38403      .   S
    C156   C152      1.39351      .   S
    C173   C179      1.40659      .   S
    C173   C186      1.39979      .   S
    C82    C83       1.40698      .   S
    C82    C96       1.39867      .   S
    C179   C195      1.38264      .   S
    H2     C96       1.09004      .   S
    C83    C117      1.38402      .   S
    C96    C102      1.39401      .   S
    C137   H21       1.08908      .   S
    C137   C138      1.40530      .   S
    C225   H69       1.08887      .   S
    C225   C222      1.40604      .   S
    H47    C186      1.09036      .   S
    C186   C185      1.39604      .   S
    C226   C222      1.40492      .   S
    C226   H70       1.08840      .   S
    C152   C138      1.40366      .   S
    C152   H28       1.08706      .   S
    C195   H53       1.08840      .   S
    C195   C171      1.40429      .   S
    C222   C218      1.50297      .   S
    C117   H15       1.08865      .   S
    C117   C106      1.40503      .   S
    C138   C159      1.50256      .   S
    C102   C106      1.40480      .   S
    C102   H5        1.08854      .   S
    C185   C171      1.40470      .   S
    C185   H46       1.08890      .   S
    C171   C178      1.50254      .   S
    C106   C80       1.50257      .   S
    H18    C120      1.08988      .   S
    C218   O285      1.27699      .   S
    C218   O289      1.26893      .   S
    H71    C227      1.08954      .   S
    C159   O266      1.27538      .   S
    C159   O267      1.27093      .   S
    H17    C119      1.08964      .   S
    H63    C214      1.08896      .   S
    C178   O275      1.27575      .   S
    C178   O272      1.27130      .   S
    C80    O126      1.27310      .   S
    C80    O128      1.27384      .   S
    H60    C206      1.08947      .   S
    H64    C216      1.08931      .   S
    C120   C119      1.38855      .   S
    C120   N246      1.34826      .   S
    C227   C214      1.38789      .   S
    C227   C200      1.40154      .   S
    H19    C121      1.08724      .   S
    C206   C216      1.38726      .   S
    C206   N251      1.35027      .   S
    C216   C204      1.40239      .   S
    H16    C118      1.08826      .   S
    C121   C118      1.38792      .   S
    C204   C200      1.47653      .   S
