# CIF file generated by openbabel 2.4.90, see http://openbabel.sf.net
data_I
_chemical_name_common ''
_cell_length_a 22.412
_cell_length_b 17.845
_cell_length_c 17.876
_cell_angle_alpha 79.011
_cell_angle_beta 71.829
_cell_angle_gamma 71.745
_space_group_name_H-M_alt 'P 1'
_space_group_name_Hall 'P 1'
loop_
    _symmetry_equiv_pos_as_xyz
    x,y,z
loop_
    _atom_site_label
    _atom_site_type_symbol
    _atom_site_fract_x
    _atom_site_fract_y
    _atom_site_fract_z
    _atom_site_occupancy
    Lv0     Lv   0.07940   0.60115   0.75505   1.000
    Lv1     Lv   0.75729   0.24507   0.39862   1.000
    Lv2     Lv   0.10557   0.78638   0.21352   1.000
    Lv3     Lv   0.41194   0.89279   0.40245   1.000
    Lv4     Lv   0.85557   0.71345   0.28655   1.000
    Lv5     Lv   0.16182   0.90242   0.39329   1.000
    Lv6     Lv   0.30975   0.60696   0.09757   1.000
    Lv7     Lv   0.64438   0.28653   0.71344   1.000
    Lv8     Lv   0.42059   0.39883   0.24495   1.000
    Lv9     Lv   0.17103   0.74510   0.89853   1.000
    Lv10    Lv   0.33816   0.09757   0.60670   1.000
    Lv11    Lv   0.83814   0.09757   0.60670   1.000
    Lv12    Lv   0.49229   0.10117   0.25505   1.000
    Lv13    Lv   0.60555   0.78638   0.21352   1.000
    Lv14    Lv   0.92057   0.39883   0.24484   1.000
    Lv15    Lv   0.80973   0.60697   0.09757   1.000
    Lv16    Lv   0.67101   0.74511   0.89853   1.000
    Lv17    Lv   0.25731   0.24508   0.39863   1.000
    Lv18    Lv   0.32896   0.25487   0.10147   1.000
    Lv19    Lv   0.55981   0.59766   0.10639   1.000
    Lv20    Lv   0.14439   0.28653   0.71345   1.000
    Lv21    Lv   0.08803   0.10720   0.59753   1.000
    Lv22    Lv   0.82894   0.25487   0.10147   1.000
    Lv23    Lv   0.19023   0.39301   0.90243   1.000
    Lv24    Lv   0.24268   0.75491   0.60137   1.000
    Lv25    Lv   0.05982   0.59766   0.10640   1.000
    Lv26    Lv   0.00769   0.89882   0.74494   1.000
    Lv27    Lv   0.69021   0.39301   0.90243   1.000
    Lv28    Lv   0.39441   0.21359   0.78642   1.000
    Lv29    Lv   0.94014   0.40232   0.89360   1.000
    Lv30    Lv   0.89440   0.21360   0.78647   1.000
    Lv31    Lv   0.91193   0.89278   0.40237   1.000
    Lv32    Lv   0.35558   0.71345   0.28655   1.000
    Lv33    Lv   0.44016   0.40232   0.89360   1.000
    Lv34    Lv   0.58802   0.10719   0.59753   1.000
    Lv35    Lv   0.66181   0.90242   0.39329   1.000
    Lv36    Lv   0.74266   0.75490   0.60137   1.000
    Lv37    Lv   0.57938   0.60115   0.75496   1.000
    Lv38    Lv   0.50767   0.89882   0.74494   1.000
    Lv39    Lv   0.99228   0.10116   0.25505   1.000
