# CIF file generated by openbabel 2.4.90, see http://openbabel.sf.net
data_I
_chemical_name_common ''
_cell_length_a 22.412
_cell_length_b 17.845
_cell_length_c 17.876
_cell_angle_alpha 79.011
_cell_angle_beta 71.829
_cell_angle_gamma 71.745
_space_group_name_H-M_alt 'P 1'
_space_group_name_Hall 'P 1'
loop_
    _symmetry_equiv_pos_as_xyz
    x,y,z
loop_
    _atom_site_label
    _atom_site_type_symbol
    _atom_site_fract_x
    _atom_site_fract_y
    _atom_site_fract_z
    _atom_site_occupancy
    C0      C    0.32835   0.32099   0.92840   1.000
    C1      C    0.82833   0.32100   0.92840   1.000
    C2      C    0.04678   0.92797   0.32128   1.000
    C3      C    0.54677   0.92797   0.32127   1.000
    C4      C    0.42175   0.57195   0.17800   1.000
    C5      C    0.92174   0.57194   0.17870   1.000
    C6      C    0.20322   0.17907   0.57159   1.000
    C7      C    0.70321   0.17907   0.57159   1.000
    C8      C    0.17163   0.67898   0.07160   1.000
    C9      C    0.67162   0.67899   0.07160   1.000
    C10     C    0.45320   0.07200   0.67870   1.000
    C11     C    0.95319   0.07201   0.67872   1.000
    C12     C    0.07822   0.42804   0.82131   1.000
    C13     C    0.57822   0.42803   0.82131   1.000
    C14     C    0.29676   0.82092   0.42841   1.000
    C15     C    0.79674   0.82091   0.42841   1.000
    C16     C    0.37476   0.24999   0.25006   1.000
    C17     C    0.87474   0.24999   0.25007   1.000
    C18     C    0.12523   0.74999   0.74993   1.000
    C19     C    0.62521   0.74998   0.74993   1.000
    C20     C    0.37179   0.10606   0.16283   1.000
    C21     C    0.87177   0.10606   0.16283   1.000
    C22     C    0.34487   0.13876   0.01650   1.000
    C23     C    0.84486   0.13877   0.01650   1.000
    C24     C    0.43485   0.34334   0.76690   1.000
    C25     C    0.93483   0.34335   0.76689   1.000
    C26     C    0.44088   0.54958   0.82820   1.000
    C27     C    0.94086   0.54959   0.82819   1.000
    C28     C    0.32572   0.50275   0.88128   1.000
    C29     C    0.82571   0.50276   0.88127   1.000
    C30     C    0.49248   0.16213   0.10655   1.000
    C31     C    0.99246   0.16212   0.10650   1.000
    C32     C    0.07646   0.01585   0.13930   1.000
    C33     C    0.57646   0.01586   0.13930   1.000
    C34     C    0.01048   0.76559   0.34266   1.000
    C35     C    0.51045   0.76560   0.34265   1.000
    C36     C    0.37041   0.82776   0.54959   1.000
    C37     C    0.87039   0.82777   0.54959   1.000
    C38     C    0.48254   0.88064   0.50264   1.000
    C39     C    0.98252   0.88064   0.50264   1.000
    C40     C    0.37740   0.33795   0.39351   1.000
    C41     C    0.87738   0.33795   0.39351   1.000
    C42     C    0.40519   0.48396   0.36061   1.000
    C43     C    0.90516   0.48395   0.36061   1.000
    C44     C    0.31497   0.73418   0.15696   1.000
    C45     C    0.81496   0.73418   0.15696   1.000
    C46     C    0.30888   0.67252   0.95059   1.000
    C47     C    0.80887   0.67253   0.95059   1.000
    C48     C    0.42407   0.61942   0.99747   1.000
    C49     C    0.92406   0.61942   0.99747   1.000
    C50     C    0.25670   0.39385   0.33737   1.000
    C51     C    0.75668   0.39384   0.33736   1.000
    C52     C    0.17285   0.36122   0.48336   1.000
    C53     C    0.67282   0.36122   0.48335   1.000
    C54     C    0.24002   0.15711   0.73325   1.000
    C55     C    0.74000   0.15712   0.73324   1.000
    C56     C    0.37974   0.95032   0.67215   1.000
    C57     C    0.87972   0.95032   0.67216   1.000
    C58     C    0.26761   0.99718   0.61913   1.000
    C59     C    0.76760   0.99718   0.61914   1.000
    C60     C    0.12819   0.89391   0.83717   1.000
    C61     C    0.62817   0.89392   0.83717   1.000
    C62     C    0.15511   0.86121   0.98350   1.000
    C63     C    0.65509   0.86122   0.98350   1.000
    C64     C    0.06514   0.65663   0.23312   1.000
    C65     C    0.56512   0.65664   0.23311   1.000
    C66     C    0.05910   0.45039   0.17182   1.000
    C67     C    0.55908   0.45040   0.17180   1.000
    C68     C    0.17426   0.49722   0.11870   1.000
    C69     C    0.67425   0.49722   0.11871   1.000
    C70     C    0.00751   0.83786   0.89345   1.000
    C71     C    0.50749   0.83785   0.89345   1.000
    C72     C    0.42351   0.98412   0.86069   1.000
    C73     C    0.92350   0.98412   0.86060   1.000
    C74     C    0.48952   0.23438   0.65736   1.000
    C75     C    0.98950   0.23438   0.65736   1.000
    C76     C    0.12957   0.17222   0.45041   1.000
    C77     C    0.62955   0.17223   0.45041   1.000
    C78     C    0.01743   0.11935   0.49736   1.000
    C79     C    0.51742   0.11935   0.49736   1.000
    C80     C    0.12259   0.66203   0.60649   1.000
    C81     C    0.62257   0.66203   0.60649   1.000
    C82     C    0.09481   0.51602   0.63939   1.000
    C83     C    0.59479   0.51602   0.63939   1.000
    C84     C    0.18500   0.26580   0.84305   1.000
    C85     C    0.68499   0.26580   0.84304   1.000
    C86     C    0.19109   0.32746   0.04942   1.000
    C87     C    0.69108   0.32746   0.04942   1.000
    C88     C    0.07591   0.38056   0.00254   1.000
    C89     C    0.57589   0.38057   0.00254   1.000
    C90     C    0.24330   0.60613   0.66264   1.000
    C91     C    0.74328   0.60612   0.66264   1.000
    C92     C    0.32715   0.63876   0.51665   1.000
    C93     C    0.82713   0.63875   0.51665   1.000
    C94     C    0.25996   0.84287   0.26676   1.000
    C95     C    0.75994   0.84287   0.26676   1.000
    C96     C    0.12024   0.04966   0.32783   1.000
    C97     C    0.62023   0.04966   0.32784   1.000
    C98     C    0.23237   0.00280   0.38086   1.000
    C99     C    0.73236   0.00280   0.38087   1.000
    C100    C    0.35525   0.16276   0.13010   1.000
    C101    C    0.85523   0.16277   0.13010   1.000
    C102    C    0.34186   0.17909   0.05664   1.000
    C103    C    0.84184   0.17910   0.05663   1.000
    C104    C    0.32400   0.28890   0.10265   1.000
    C105    C    0.82398   0.28891   0.10266   1.000
    C106    C    0.42487   0.28733   0.76800   1.000
    C107    C    0.92485   0.28734   0.76859   1.000
    C108    C    0.45470   0.37015   0.90249   1.000
    C109    C    0.95468   0.37016   0.90249   1.000
    C110    C    0.43260   0.49283   0.85589   1.000
    C111    C    0.93259   0.49284   0.85588   1.000
    C112    C    0.37526   0.46938   0.88154   1.000
    C113    C    0.87525   0.46939   0.88153   1.000
    C114    C    0.49729   0.12956   0.16315   1.000
    C115    C    0.99727   0.12955   0.16315   1.000
    C116    C    0.03939   0.05609   0.17952   1.000
    C117    C    0.53938   0.05609   0.17952   1.000
    C118    C    0.47977   0.10242   0.28903   1.000
    C119    C    0.97976   0.10242   0.28903   1.000
    C120    C    0.04747   0.76772   0.28682   1.000
    C121    C    0.54746   0.76773   0.28682   1.000
    C122    C    0.40896   0.90169   0.37038   1.000
    C123    C    0.90895   0.90168   0.37038   1.000
    C124    C    0.39316   0.85535   0.49289   1.000
    C125    C    0.89314   0.85535   0.49200   1.000
    C126    C    0.44946   0.88088   0.46937   1.000
    C127    C    0.94945   0.88088   0.46937   1.000
    C128    C    0.39413   0.37048   0.33688   1.000
    C129    C    0.89411   0.37048   0.33688   1.000
    C130    C    0.40795   0.44381   0.32040   1.000
    C131    C    0.90793   0.44381   0.32045   1.000
    C132    C    0.42554   0.39760   0.21099   1.000
    C133    C    0.92552   0.39760   0.21000   1.000
    C134    C    0.32500   0.73203   0.21295   1.000
    C135    C    0.82499   0.73203   0.21295   1.000
    C136    C    0.29525   0.59800   0.12964   1.000
    C137    C    0.79523   0.59801   0.12964   1.000
    C138    C    0.31722   0.64474   0.00724   1.000
    C139    C    0.81720   0.64475   0.00724   1.000
    C140    C    0.37458   0.61909   0.03072   1.000
    C141    C    0.87456   0.61909   0.03072   1.000
    C142    C    0.25207   0.33716   0.37004   1.000
    C143    C    0.75206   0.33715   0.37004   1.000
    C144    C    0.21003   0.32087   0.44334   1.000
    C145    C    0.71001   0.32087   0.44334   1.000
    C146    C    0.26995   0.21103   0.39749   1.000
    C147    C    0.76994   0.21102   0.39749   1.000
    C148    C    0.20281   0.21300   0.73151   1.000
    C149    C    0.70279   0.21299   0.73152   1.000
    C150    C    0.34111   0.12971   0.59773   1.000
    C151    C    0.84110   0.12971   0.59773   1.000
    C152    C    0.35696   0.00707   0.64443   1.000
    C153    C    0.85695   0.00707   0.64443   1.000
    C154    C    0.30066   0.03055   0.61880   1.000
    C155    C    0.80065   0.03054   0.61882   1.000
    C156    C    0.14473   0.83721   0.86989   1.000
    C157    C    0.64472   0.83722   0.86988   1.000
    C158    C    0.15812   0.82088   0.94337   1.000
    C159    C    0.65811   0.82089   0.94336   1.000
    C160    C    0.17599   0.71107   0.89735   1.000
    C161    C    0.67598   0.71108   0.89734   1.000
    C162    C    0.07512   0.71264   0.23142   1.000
    C163    C    0.57510   0.71265   0.23141   1.000
    C164    C    0.04528   0.62983   0.09750   1.000
    C165    C    0.54527   0.62984   0.09752   1.000
    C166    C    0.06737   0.50714   0.14413   1.000
    C167    C    0.56736   0.50715   0.14413   1.000
    C168    C    0.12471   0.53060   0.11847   1.000
    C169    C    0.62471   0.53060   0.11846   1.000
    C170    C    0.00269   0.87043   0.83685   1.000
    C171    C    0.50268   0.87042   0.83685   1.000
    C172    C    0.46058   0.94389   0.82048   1.000
    C173    C    0.96058   0.94389   0.82048   1.000
    C174    C    0.02021   0.89756   0.71097   1.000
    C175    C    0.52020   0.89756   0.71097   1.000
    C176    C    0.45251   0.23224   0.71319   1.000
    C177    C    0.95249   0.23225   0.71318   1.000
    C178    C    0.09102   0.09830   0.62962   1.000
    C179    C    0.59101   0.09830   0.62962   1.000
    C180    C    0.10682   0.14464   0.50711   1.000
    C181    C    0.60680   0.14464   0.50711   1.000
    C182    C    0.05051   0.11911   0.53063   1.000
    C183    C    0.55050   0.11911   0.53063   1.000
    C184    C    0.10586   0.62950   0.66312   1.000
    C185    C    0.60583   0.62951   0.66312   1.000
    C186    C    0.09204   0.55617   0.67956   1.000
    C187    C    0.59201   0.55617   0.67956   1.000
    C188    C    0.07444   0.60238   0.78901   1.000
    C189    C    0.57442   0.60238   0.78901   1.000
    C190    C    0.17497   0.26795   0.78706   1.000
    C191    C    0.67495   0.26794   0.78706   1.000
    C192    C    0.20473   0.40196   0.87036   1.000
    C193    C    0.70472   0.40197   0.87030   1.000
    C194    C    0.18276   0.35524   0.99277   1.000
    C195    C    0.68275   0.35525   0.99277   1.000
    C196    C    0.12540   0.38090   0.96929   1.000
    C197    C    0.62539   0.38090   0.96929   1.000
    C198    C    0.24792   0.66282   0.62996   1.000
    C199    C    0.74790   0.66281   0.62996   1.000
    C200    C    0.28996   0.67911   0.55666   1.000
    C201    C    0.78994   0.67910   0.55666   1.000
    C202    C    0.23003   0.78895   0.60251   1.000
    C203    C    0.73001   0.78895   0.60251   1.000
    C204    C    0.29716   0.78699   0.26849   1.000
    C205    C    0.79715   0.78698   0.26849   1.000
    C206    C    0.15887   0.87027   0.40227   1.000
    C207    C    0.65885   0.87027   0.40228   1.000
    C208    C    0.14301   0.99292   0.35557   1.000
    C209    C    0.64300   0.99292   0.35558   1.000
    C210    C    0.19931   0.96944   0.38110   1.000
    C211    C    0.69930   0.96944   0.38119   1.000
    C212    C    0.37902   0.19252   0.80737   1.000
    C213    C    0.87901   0.19253   0.80737   1.000
    C214    C    0.12096   0.80745   0.19260   1.000
    C215    C    0.62094   0.80746   0.19263   1.000
    C216    C    0.37106   0.69243   0.30750   1.000
    C217    C    0.87104   0.69243   0.30750   1.000
    C218    C    0.12892   0.30756   0.69250   1.000
    C219    C    0.62889   0.30754   0.69252   1.000
    C220    C    0.34416   0.23299   0.15868   1.000
    C221    C    0.84414   0.23299   0.15868   1.000
    C222    C    0.32219   0.25939   0.03920   1.000
    C223    C    0.82218   0.25940   0.03922   1.000
    C224    C    0.30174   0.37093   0.11285   1.000
    C225    C    0.80172   0.37093   0.11285   1.000
    C226    C    0.37841   0.26166   0.82869   1.000
    C227    C    0.87839   0.26167   0.82869   1.000
    C228    C    0.38967   0.39108   0.91040   1.000
    C229    C    0.88965   0.39109   0.91042   1.000
    C230    C    0.48286   0.42969   0.86934   1.000
    C231    C    0.98285   0.42969   0.86934   1.000
    C232    C    0.49029   0.29338   0.92845   1.000
    C233    C    0.99028   0.29339   0.92844   1.000
    C234    C    0.45926   0.15832   0.23319   1.000
    C235    C    0.95925   0.15831   0.23319   1.000
    C236    C    0.02798   0.03889   0.25964   1.000
    C237    C    0.52798   0.03890   0.25964   1.000
    C238    C    0.45633   0.11288   0.37081   1.000
    C239    C    0.95631   0.11288   0.37081   1.000
    C240    C    0.07647   0.82820   0.26176   1.000
    C241    C    0.57646   0.82821   0.26176   1.000
    C242    C    0.45968   0.90959   0.39118   1.000
    C243    C    0.95967   0.90958   0.39118   1.000
    C244    C    0.36760   0.86873   0.42991   1.000
    C245    C    0.86759   0.86873   0.42991   1.000
    C246    C    0.39873   0.92733   0.29369   1.000
    C247    C    0.89872   0.92732   0.29369   1.000
    C248    C    0.40507   0.34178   0.26688   1.000
    C249    C    0.90505   0.34178   0.26687   1.000
    C250    C    0.42773   0.46100   0.24031   1.000
    C251    C    0.92772   0.46100   0.24031   1.000
    C252    C    0.44775   0.38715   0.12921   1.000
    C253    C    0.94773   0.38716   0.12920   1.000
    C254    C    0.37173   0.67172   0.23815   1.000
    C255    C    0.87172   0.67172   0.23815   1.000
    C256    C    0.36025   0.59013   0.10884   1.000
    C257    C    0.86024   0.59012   0.10884   1.000
    C258    C    0.26703   0.63119   0.07018   1.000
    C259    C    0.76702   0.63120   0.07018   1.000
    C260    C    0.25972   0.57203   0.20624   1.000
    C261    C    0.75970   0.57204   0.20623   1.000
    C262    C    0.29030   0.26691   0.34158   1.000
    C263    C    0.79028   0.26691   0.34150   1.000
    C264    C    0.22167   0.24059   0.46074   1.000
    C265    C    0.72165   0.24058   0.46074   1.000
    C266    C    0.29359   0.12902   0.38730   1.000
    C267    C    0.79356   0.12901   0.38730   1.000
    C268    C    0.17369   0.23859   0.67119   1.000
    C269    C    0.67367   0.23858   0.67120   1.000
    C270    C    0.29042   0.10883   0.58986   1.000
    C271    C    0.79041   0.10883   0.58986   1.000
    C272    C    0.38248   0.07017   0.63087   1.000
    C273    C    0.88247   0.07017   0.63087   1.000
    C274    C    0.35134   0.20646   0.57181   1.000
    C275    C    0.85132   0.20647   0.57182   1.000
    C276    C    0.15583   0.76699   0.84132   1.000
    C277    C    0.65581   0.76699   0.84132   1.000
    C278    C    0.17779   0.74058   0.96078   1.000
    C279    C    0.67778   0.74059   0.96078   1.000
    C280    C    0.19826   0.62905   0.88715   1.000
    C281    C    0.69823   0.62905   0.88716   1.000
    C282    C    0.12157   0.73831   0.17132   1.000
    C283    C    0.62155   0.73832   0.17131   1.000
    C284    C    0.11031   0.60889   0.08959   1.000
    C285    C    0.61030   0.60890   0.08950   1.000
    C286    C    0.01712   0.57029   0.13067   1.000
    C287    C    0.51711   0.57029   0.13066   1.000
    C288    C    0.00969   0.70659   0.07155   1.000
    C289    C    0.50969   0.70659   0.07154   1.000
    C290    C    0.04072   0.84167   0.76681   1.000
    C291    C    0.54071   0.84166   0.76681   1.000
    C292    C    0.47199   0.96108   0.74036   1.000
    C293    C    0.97199   0.96109   0.74036   1.000
    C294    C    0.04366   0.88711   0.62919   1.000
    C295    C    0.54364   0.88711   0.62919   1.000
    C296    C    0.42351   0.17177   0.73824   1.000
    C297    C    0.92349   0.17178   0.73824   1.000
    C298    C    0.04030   0.09040   0.60882   1.000
    C299    C    0.54029   0.09039   0.60882   1.000
    C300    C    0.13238   0.13126   0.57009   1.000
    C301    C    0.63236   0.13125   0.57009   1.000
    C302    C    0.10125   0.07265   0.70630   1.000
    C303    C    0.60125   0.07263   0.70630   1.000
    C304    C    0.09491   0.65820   0.73310   1.000
    C305    C    0.59490   0.65820   0.73312   1.000
    C306    C    0.07226   0.53898   0.75969   1.000
    C307    C    0.57224   0.53897   0.75969   1.000
    C308    C    0.05224   0.61282   0.87080   1.000
    C309    C    0.55224   0.61281   0.87000   1.000
    C310    C    0.12824   0.32826   0.76180   1.000
    C311    C    0.62822   0.32826   0.76186   1.000
    C312    C    0.13973   0.40985   0.89116   1.000
    C313    C    0.63971   0.40986   0.89117   1.000
    C314    C    0.23295   0.36878   0.92982   1.000
    C315    C    0.73293   0.36879   0.92983   1.000
    C316    C    0.24027   0.42792   0.79376   1.000
    C317    C    0.74025   0.42793   0.79377   1.000
    C318    C    0.20969   0.73307   0.65842   1.000
    C319    C    0.70967   0.73306   0.65842   1.000
    C320    C    0.27832   0.75940   0.53926   1.000
    C321    C    0.77830   0.75939   0.53926   1.000
    C322    C    0.20640   0.87097   0.61271   1.000
    C323    C    0.70639   0.87096   0.61271   1.000
    C324    C    0.32629   0.76140   0.32881   1.000
    C325    C    0.82627   0.76139   0.32881   1.000
    C326    C    0.20956   0.89116   0.41014   1.000
    C327    C    0.70954   0.89115   0.41015   1.000
    C328    C    0.11750   0.92981   0.36913   1.000
    C329    C    0.61749   0.92981   0.36913   1.000
    C330    C    0.14864   0.79352   0.42818   1.000
    C331    C    0.64863   0.79352   0.42818   1.000
    C332    C    0.33333   0.14926   0.84999   1.000
    C333    C    0.83332   0.14926   0.84999   1.000
    C334    C    0.16665   0.85071   0.15002   1.000
    C335    C    0.66663   0.85072   0.15002   1.000
    C336    C    0.41696   0.64929   0.35038   1.000
    C337    C    0.91695   0.64929   0.35039   1.000
    C338    C    0.08302   0.35069   0.64962   1.000
    C339    C    0.58301   0.35071   0.64960   1.000
    C340    C    0.30318   0.39139   0.17554   1.000
    C341    C    0.80317   0.39139   0.17554   1.000
    C342    C    0.28056   0.41842   0.05968   1.000
    C343    C    0.78055   0.41842   0.05968   1.000
    C344    C    0.46102   0.24050   0.95266   1.000
    C345    C    0.96101   0.24051   0.95267   1.000
    C346    C    0.29215   0.17536   0.91162   1.000
    C347    C    0.79214   0.17537   0.91162   1.000
    C348    C    0.04857   0.28384   0.92575   1.000
    C349    C    0.54856   0.28383   0.92576   1.000
    C350    C    0.41319   0.17555   0.39120   1.000
    C351    C    0.91317   0.17554   0.39120   1.000
    C352    C    0.48079   0.05994   0.41815   1.000
    C353    C    0.98077   0.05994   0.41815   1.000
    C354    C    0.44258   0.95070   0.24060   1.000
    C355    C    0.94258   0.95067   0.24066   1.000
    C356    C    0.16403   0.91190   0.17715   1.000
    C357    C    0.66401   0.91191   0.17715   1.000
    C358    C    0.34633   0.92521   0.28430   1.000
    C359    C    0.84632   0.92520   0.28431   1.000
    C360    C    0.44568   0.32460   0.10894   1.000
    C361    C    0.94567   0.32461   0.10890   1.000
    C362    C    0.46940   0.43998   0.08175   1.000
    C363    C    0.96941   0.43997   0.08170   1.000
    C364    C    0.28897   0.54808   0.25912   1.000
    C365    C    0.78895   0.54807   0.25910   1.000
    C366    C    0.45868   0.58831   0.32322   1.000
    C367    C    0.95865   0.58830   0.32323   1.000
    C368    C    0.20153   0.57443   0.21565   1.000
    C369    C    0.70151   0.57447   0.21565   1.000
    C370    C    0.33682   0.10842   0.32492   1.000
    C371    C    0.83681   0.10841   0.32494   1.000
    C372    C    0.26914   0.08168   0.44016   1.000
    C373    C    0.76912   0.08166   0.44015   1.000
    C374    C    0.30770   0.25940   0.54770   1.000
    C375    C    0.80767   0.25939   0.54770   1.000
    C376    C    0.08598   0.32472   0.58771   1.000
    C377    C    0.58596   0.32472   0.58771   1.000
    C378    C    0.40352   0.21599   0.57451   1.000
    C379    C    0.90351   0.21599   0.57450   1.000
    C380    C    0.19682   0.60858   0.82446   1.000
    C381    C    0.69679   0.60859   0.82446   1.000
    C382    C    0.21942   0.58156   0.94033   1.000
    C383    C    0.71940   0.58156   0.94033   1.000
    C384    C    0.03896   0.75947   0.04735   1.000
    C385    C    0.53896   0.75947   0.04729   1.000
    C386    C    0.20783   0.82461   0.08830   1.000
    C387    C    0.70781   0.82461   0.08838   1.000
    C388    C    0.45139   0.71615   0.07431   1.000
    C389    C    0.95140   0.71614   0.07424   1.000
    C390    C    0.08680   0.82444   0.60880   1.000
    C391    C    0.58678   0.82444   0.60880   1.000
    C392    C    0.01920   0.94005   0.58185   1.000
    C393    C    0.51918   0.94005   0.58185   1.000
    C394    C    0.05740   0.04927   0.75933   1.000
    C395    C    0.55739   0.04926   0.75933   1.000
    C396    C    0.33595   0.08808   0.82280   1.000
    C397    C    0.83594   0.08808   0.82280   1.000
    C398    C    0.15365   0.07479   0.71560   1.000
    C399    C    0.65364   0.07477   0.71568   1.000
    C400    C    0.05430   0.67537   0.89107   1.000
    C401    C    0.55429   0.67537   0.89100   1.000
    C402    C    0.03056   0.56001   0.91826   1.000
    C403    C    0.53054   0.56002   0.91826   1.000
    C404    C    0.21101   0.45187   0.74088   1.000
    C405    C    0.71099   0.45189   0.74089   1.000
    C406    C    0.04131   0.41168   0.67677   1.000
    C407    C    0.54129   0.41167   0.67670   1.000
    C408    C    0.29845   0.42552   0.78435   1.000
    C409    C    0.79844   0.42552   0.78435   1.000
    C410    C    0.16317   0.89155   0.67509   1.000
    C411    C    0.66315   0.89155   0.67508   1.000
    C412    C    0.23084   0.91832   0.55985   1.000
    C413    C    0.73082   0.91831   0.55985   1.000
    C414    C    0.19229   0.74060   0.45230   1.000
    C415    C    0.69227   0.74059   0.45220   1.000
    C416    C    0.41401   0.67527   0.41229   1.000
    C417    C    0.91400   0.67528   0.41228   1.000
    C418    C    0.09646   0.78399   0.42550   1.000
    C419    C    0.59644   0.78399   0.42550   1.000
    O420    O    0.60064   0.38074   0.98591   1.000
    O421    O    0.10065   0.38073   0.98591   1.000
    O422    O    0.84588   0.63192   0.01898   1.000
    O423    O    0.79211   0.63797   0.03871   1.000
    O424    O    0.81303   0.65864   0.97891   1.000
    O425    O    0.34590   0.63191   0.01898   1.000
    O426    O    0.29212   0.63797   0.03871   1.000
    O427    O    0.31305   0.65863   0.97891   1.000
    O428    O    0.84335   0.15893   0.03656   1.000
    O429    O    0.34337   0.15893   0.03657   1.000
    O430    O    0.86740   0.60460   0.06978   1.000
    O431    O    0.89931   0.61925   0.01409   1.000
    O432    O    0.36741   0.60461   0.06978   1.000
    O433    O    0.39932   0.61926   0.01409   1.000
    O434    O    0.33203   0.21924   0.04792   1.000
    O435    O    0.32310   0.27415   0.07092   1.000
    O436    O    0.32527   0.29019   0.98380   1.000
    O437    O    0.83201   0.21925   0.04792   1.000
    O438    O    0.82308   0.27415   0.07094   1.000
    O439    O    0.82526   0.29020   0.98381   1.000
    O440    O    0.52432   0.73303   0.05941   1.000
    O441    O    0.02433   0.73303   0.05945   1.000
    O442    O    0.18693   0.34135   0.02110   1.000
    O443    O    0.68691   0.34136   0.02110   1.000
    O444    O    0.84854   0.17093   0.09336   1.000
    O445    O    0.34856   0.17093   0.09337   1.000
    O446    O    0.79113   0.39467   0.08626   1.000
    O447    O    0.29115   0.39467   0.08626   1.000
    O448    O    0.21933   0.65509   0.07089   1.000
    O449    O    0.28114   0.61460   0.09991   1.000
    O450    O    0.71932   0.65510   0.07089   1.000
    O451    O    0.78112   0.61460   0.09991   1.000
    O452    O    0.48054   0.71137   0.07292   1.000
    O453    O    0.52748   0.66821   0.08453   1.000
    O454    O    0.98055   0.71136   0.07290   1.000
    O455    O    0.02749   0.66821   0.08452   1.000
    O456    O    0.64096   0.64395   0.08055   1.000
    O457    O    0.64659   0.70866   0.12145   1.000
    O458    O    0.67470   0.70979   0.01619   1.000
    O459    O    0.14097   0.64394   0.08059   1.000
    O460    O    0.14660   0.70865   0.12146   1.000
    O461    O    0.17471   0.70978   0.01619   1.000
    O462    O    0.95857   0.41357   0.10545   1.000
    O463    O    0.45858   0.41357   0.10548   1.000
    O464    O    0.18724   0.83766   0.11916   1.000
    O465    O    0.68722   0.83766   0.11920   1.000
    O466    O    0.57778   0.61937   0.09351   1.000
    O467    O    0.61750   0.56975   0.10398   1.000
    O468    O    0.07779   0.61936   0.09354   1.000
    O469    O    0.11751   0.56975   0.10403   1.000
    O470    O    0.03120   0.60006   0.11408   1.000
    O471    O    0.53119   0.60006   0.11409   1.000
    O472    O    0.31287   0.32991   0.10775   1.000
    O473    O    0.33408   0.26095   0.13067   1.000
    O474    O    0.81285   0.32992   0.10775   1.000
    O475    O    0.83406   0.26095   0.13067   1.000
    O476    O    0.99487   0.14584   0.13482   1.000
    O477    O    0.49488   0.14585   0.13485   1.000
    O478    O    0.82773   0.59407   0.11924   1.000
    O479    O    0.89099   0.58103   0.14377   1.000
    O480    O    0.32775   0.59406   0.11924   1.000
    O481    O    0.39100   0.58104   0.14342   1.000
    O482    O    0.94670   0.35589   0.11905   1.000
    O483    O    0.44672   0.35588   0.11907   1.000
    O484    O    0.80244   0.38116   0.14419   1.000
    O485    O    0.30246   0.38116   0.14419   1.000
    O486    O    0.64948   0.51391   0.11858   1.000
    O487    O    0.59603   0.51887   0.13129   1.000
    O488    O    0.14949   0.51391   0.11859   1.000
    O489    O    0.09604   0.51887   0.13130   1.000
    O490    O    0.93663   0.39238   0.16960   1.000
    O491    O    0.43665   0.39238   0.17010   1.000
    O492    O    0.77747   0.58502   0.16793   1.000
    O493    O    0.27748   0.58502   0.16794   1.000
    O494    O    0.34971   0.19787   0.14439   1.000
    O495    O    0.36352   0.13441   0.14646   1.000
    O496    O    0.84969   0.19788   0.14439   1.000
    O497    O    0.86350   0.13441   0.14646   1.000
    O498    O    0.54223   0.53872   0.13739   1.000
    O499    O    0.46943   0.57112   0.15433   1.000
    O500    O    0.04224   0.53872   0.13740   1.000
    O501    O    0.96943   0.57112   0.15468   1.000
    O502    O    0.55792   0.03597   0.15941   1.000
    O503    O    0.05792   0.03597   0.15941   1.000
    O504    O    0.56322   0.47877   0.15796   1.000
    O505    O    0.06324   0.47877   0.15798   1.000
    O506    O    0.66532   0.88131   0.16358   1.000
    O507    O    0.64379   0.82909   0.17132   1.000
    O508    O    0.16534   0.88131   0.16358   1.000
    O509    O    0.14381   0.82908   0.17131   1.000
    O510    O    0.31999   0.73311   0.18495   1.000
    O511    O    0.81998   0.73311   0.18495   1.000
    O512    O    0.35946   0.24149   0.20437   1.000
    O513    O    0.85944   0.24149   0.20438   1.000
    O514    O    0.51833   0.09282   0.17133   1.000
    O515    O    0.47828   0.14394   0.19817   1.000
    O516    O    0.01833   0.09282   0.17133   1.000
    O517    O    0.97826   0.14393   0.19817   1.000
    O518    O    0.62125   0.77289   0.18197   1.000
    O519    O    0.59832   0.72548   0.20136   1.000
    O520    O    0.12127   0.77288   0.18196   1.000
    O521    O    0.09835   0.72547   0.20137   1.000
    O522    O    0.39674   0.62183   0.20807   1.000
    O523    O    0.42474   0.51648   0.20915   1.000
    O524    O    0.89673   0.62183   0.20842   1.000
    O525    O    0.92473   0.51647   0.20950   1.000
    O526    O    0.53368   0.04749   0.21958   1.000
    O527    O    0.03368   0.04749   0.21958   1.000
    O528    O    0.09872   0.81782   0.22718   1.000
    O529    O    0.59870   0.81783   0.22719   1.000
    O530    O    0.73060   0.57325   0.21094   1.000
    O531    O    0.77433   0.56005   0.23266   1.000
    O532    O    0.23062   0.57323   0.21094   1.000
    O533    O    0.27434   0.56006   0.23268   1.000
    O534    O    0.92662   0.42930   0.22515   1.000
    O535    O    0.91529   0.36969   0.23844   1.000
    O536    O    0.42664   0.42930   0.22565   1.000
    O537    O    0.41531   0.36969   0.23893   1.000
    O538    O    0.34837   0.70188   0.22555   1.000
    O539    O    0.31108   0.75951   0.24072   1.000
    O540    O    0.84836   0.70187   0.22555   1.000
    O541    O    0.81107   0.75951   0.24072   1.000
    O542    O    0.57011   0.68464   0.23226   1.000
    O543    O    0.56128   0.74019   0.25911   1.000
    O544    O    0.07013   0.68463   0.23227   1.000
    O545    O    0.06130   0.74018   0.25912   1.000
    O546    O    0.91699   0.20415   0.24163   1.000
    O547    O    0.96950   0.13037   0.26111   1.000
    O548    O    0.41701   0.20416   0.24162   1.000
    O549    O    0.46952   0.13037   0.26111   1.000
    O550    O    0.37139   0.68208   0.27282   1.000
    O551    O    0.87138   0.68207   0.27282   1.000
    O552    O    0.41784   0.45241   0.28035   1.000
    O553    O    0.91782   0.45240   0.28038   1.000
    O554    O    0.42065   0.93902   0.26714   1.000
    O555    O    0.92065   0.93900   0.26717   1.000
    O556    O    0.38992   0.29589   0.25847   1.000
    O557    O    0.33253   0.25845   0.29582   1.000
    O558    O    0.88990   0.29589   0.25847   1.000
    O559    O    0.83251   0.25845   0.29578   1.000
    O560    O    0.00387   0.07066   0.27433   1.000
    O561    O    0.03738   0.98343   0.29046   1.000
    O562    O    0.50387   0.07066   0.27433   1.000
    O563    O    0.53737   0.98343   0.29045   1.000
    O564    O    0.06197   0.79796   0.27429   1.000
    O565    O    0.06163   0.87808   0.29152   1.000
    O566    O    0.56196   0.79797   0.27429   1.000
    O567    O    0.56161   0.87809   0.29151   1.000
    O568    O    0.27856   0.81493   0.26763   1.000
    O569    O    0.77855   0.81493   0.26763   1.000
    O570    O    0.89958   0.35613   0.30188   1.000
    O571    O    0.39960   0.35613   0.30188   1.000
    O572    O    0.31173   0.77419   0.29865   1.000
    O573    O    0.81171   0.77419   0.29865   1.000
    O574    O    0.37253   0.92627   0.28900   1.000
    O575    O    0.87252   0.92626   0.28900   1.000
    O576    O    0.02898   0.76666   0.31474   1.000
    O577    O    0.52896   0.76667   0.31473   1.000
    O578    O    0.96803   0.10765   0.32992   1.000
    O579    O    0.46805   0.10765   0.32992   1.000
    O580    O    0.40384   0.91451   0.33203   1.000
    O581    O    0.90383   0.91450   0.33203   1.000
    O582    O    0.84866   0.72691   0.31816   1.000
    O583    O    0.89400   0.67086   0.32894   1.000
    O584    O    0.34867   0.72691   0.31816   1.000
    O585    O    0.39401   0.67086   0.32894   1.000
    O586    O    0.40104   0.40714   0.32864   1.000
    O587    O    0.40657   0.46388   0.34050   1.000
    O588    O    0.90102   0.40714   0.32866   1.000
    O589    O    0.90655   0.46388   0.34053   1.000
    O590    O    0.58213   0.92889   0.34520   1.000
    O591    O    0.50322   0.91878   0.35622   1.000
    O592    O    0.08214   0.92889   0.34520   1.000
    O593    O    0.00322   0.91877   0.35623   1.000
    O594    O    0.43782   0.61880   0.33680   1.000
    O595    O    0.93780   0.61880   0.33681   1.000
    O596    O    0.31520   0.11872   0.35611   1.000
    O597    O    0.81519   0.11871   0.35612   1.000
    O598    O    0.13163   0.02129   0.34170   1.000
    O599    O    0.63161   0.02129   0.34171   1.000
    O600    O    0.81151   0.79115   0.37861   1.000
    O601    O    0.31152   0.79116   0.37861   1.000
    O602    O    0.88574   0.35421   0.36519   1.000
    O603    O    0.38577   0.35421   0.36519   1.000
    O604    O    0.75437   0.36550   0.35370   1.000
    O605    O    0.25439   0.36551   0.35370   1.000
    O606    O    0.77117   0.30203   0.35577   1.000
    O607    O    0.78011   0.23896   0.36949   1.000
    O608    O    0.27119   0.30204   0.35581   1.000
    O609    O    0.28013   0.23897   0.36953   1.000
    O610    O    0.41548   0.66228   0.38133   1.000
    O611    O    0.91547   0.66228   0.38133   1.000
    O612    O    0.13026   0.96136   0.36235   1.000
    O613    O    0.17116   0.98118   0.36833   1.000
    O614    O    0.63024   0.96136   0.36235   1.000
    O615    O    0.67115   0.98118   0.36838   1.000
    O616    O    0.13818   0.90004   0.38570   1.000
    O617    O    0.63817   0.90004   0.38570   1.000
    O618    O    0.23105   0.32902   0.40669   1.000
    O619    O    0.73103   0.32901   0.40669   1.000
    O620    O    0.93431   0.90563   0.38078   1.000
    O621    O    0.88827   0.88520   0.40014   1.000
    O622    O    0.43432   0.90564   0.38078   1.000
    O623    O    0.38828   0.88521   0.40014   1.000
    O624    O    0.93474   0.14421   0.38100   1.000
    O625    O    0.96854   0.08641   0.39448   1.000
    O626    O    0.43476   0.14422   0.38100   1.000
    O627    O    0.46856   0.08641   0.39448   1.000
    O628    O    0.21584   0.98612   0.38098   1.000
    O629    O    0.71583   0.98612   0.38103   1.000
    O630    O    0.20444   0.93030   0.39562   1.000
    O631    O    0.70442   0.93030   0.39567   1.000
    O632    O    0.78175   0.17002   0.39239   1.000
    O633    O    0.78134   0.10534   0.41372   1.000
    O634    O    0.28177   0.17002   0.39239   1.000
    O635    O    0.28136   0.10535   0.41373   1.000
    O636    O    0.45457   0.89523   0.43027   1.000
    O637    O    0.95456   0.89523   0.43027   1.000
    O638    O    0.74579   0.22580   0.42911   1.000
    O639    O    0.24581   0.22581   0.42911   1.000
    O640    O    0.18421   0.88072   0.40620   1.000
    O641    O    0.15375   0.83190   0.41522   1.000
    O642    O    0.68420   0.88071   0.40621   1.000
    O643    O    0.65374   0.83190   0.41523   1.000
    O644    O    0.25316   0.85604   0.41927   1.000
    O645    O    0.75314   0.85603   0.41928   1.000
    O646    O    0.62254   0.78876   0.42684   1.000
    O647    O    0.12255   0.78876   0.42684   1.000
    O648    O    0.67045   0.76706   0.44019   1.000
    O649    O    0.17047   0.76706   0.44024   1.000
    O650    O    0.83217   0.84482   0.42916   1.000
    O651    O    0.78752   0.79015   0.48383   1.000
    O652    O    0.33218   0.84482   0.42916   1.000
    O653    O    0.28754   0.79016   0.48383   1.000
    O654    O    0.38038   0.86204   0.46140   1.000
    O655    O    0.88036   0.86204   0.46095   1.000
    O656    O    0.71583   0.28073   0.45204   1.000
    O657    O    0.69142   0.34105   0.46334   1.000
    O658    O    0.21585   0.28073   0.45204   1.000
    O659    O    0.19144   0.34105   0.46335   1.000
    O660    O    0.11820   0.15843   0.47876   1.000
    O661    O    0.61818   0.15844   0.47876   1.000
    O662    O    0.21245   0.20983   0.51616   1.000
    O663    O    0.71243   0.20982   0.51616   1.000
    O664    O    0.92129   0.86811   0.48068   1.000
    O665    O    0.96599   0.88076   0.48600   1.000
    O666    O    0.42131   0.86811   0.48113   1.000
    O667    O    0.46600   0.88076   0.48600   1.000
    O668    O    0.88176   0.84156   0.52079   1.000
    O669    O    0.38178   0.84155   0.52124   1.000
    O670    O    0.03397   0.11923   0.51399   1.000
    O671    O    0.53396   0.11923   0.51399   1.000
    O672    O    0.07867   0.13187   0.51887   1.000
    O673    O    0.11960   0.13795   0.53860   1.000
    O674    O    0.57865   0.13188   0.51887   1.000
    O675    O    0.61958   0.13795   0.53860   1.000
    O676    O    0.80854   0.65893   0.53666   1.000
    O677    O    0.30855   0.65894   0.53666   1.000
    O678    O    0.04540   0.10476   0.56973   1.000
    O679    O    0.54539   0.10475   0.56973   1.000
    O680    O    0.78412   0.71925   0.54796   1.000
    O681    O    0.75416   0.77417   0.57088   1.000
    O682    O    0.28414   0.71925   0.54796   1.000
    O683    O    0.25418   0.77417   0.57088   1.000
    O684    O    0.32952   0.23293   0.55975   1.000
    O685    O    0.82950   0.23293   0.55976   1.000
    O686    O    0.76892   0.67096   0.59331   1.000
    O687    O    0.26894   0.67097   0.59331   1.000
    O688    O    0.21862   0.89464   0.58628   1.000
    O689    O    0.71860   0.89464   0.58628   1.000
    O690    O    0.66779   0.15516   0.57084   1.000
    O691    O    0.61168   0.11478   0.59985   1.000
    O692    O    0.16780   0.15516   0.57084   1.000
    O693    O    0.11170   0.11478   0.59985   1.000
    O694    O    0.24682   0.14395   0.58072   1.000
    O695    O    0.18846   0.20883   0.62139   1.000
    O696    O    0.74681   0.14395   0.58072   1.000
    O697    O    0.68844   0.20883   0.62140   1.000
    O698    O    0.37743   0.21123   0.57316   1.000
    O699    O    0.34623   0.16809   0.58477   1.000
    O700    O    0.87742   0.21123   0.57316   1.000
    O701    O    0.84621   0.16809   0.58477   1.000
    O702    O    0.03143   0.91358   0.60552   1.000
    O703    O    0.53141   0.91358   0.60552   1.000
    O704    O    0.08450   0.33770   0.61866   1.000
    O705    O    0.58448   0.33771   0.61865   1.000
    O706    O    0.31577   0.11927   0.59379   1.000
    O707    O    0.29554   0.06969   0.60433   1.000
    O708    O    0.81575   0.11927   0.59379   1.000
    O709    O    0.79553   0.06969   0.60434   1.000
    O710    O    0.36180   0.09994   0.61430   1.000
    O711    O    0.86178   0.09994   0.61430   1.000
    O712    O    0.21822   0.82996   0.60761   1.000
    O713    O    0.21986   0.76101   0.63046   1.000
    O714    O    0.71820   0.82995   0.60761   1.000
    O715    O    0.71984   0.76100   0.63046   1.000
    O716    O    0.11422   0.64577   0.63480   1.000
    O717    O    0.61420   0.64577   0.63480   1.000
    O718    O    0.56521   0.85577   0.61899   1.000
    O719    O    0.06523   0.85577   0.61899   1.000
    O720    O    0.06566   0.09435   0.61922   1.000
    O721    O    0.99674   0.08121   0.64377   1.000
    O722    O    0.56565   0.09434   0.61922   1.000
    O723    O    0.49674   0.08120   0.64376   1.000
    O724    O    0.68477   0.88125   0.64389   1.000
    O725    O    0.18479   0.88126   0.64390   1.000
    O726    O    0.28414   0.01387   0.61896   1.000
    O727    O    0.32881   0.01881   0.63161   1.000
    O728    O    0.78412   0.01386   0.61898   1.000
    O729    O    0.82880   0.01881   0.63162   1.000
    O730    O    0.53192   0.89233   0.67008   1.000
    O731    O    0.03194   0.89233   0.67008   1.000
    O732    O    0.59613   0.08547   0.66796   1.000
    O733    O    0.09614   0.08548   0.66796   1.000
    O734    O    0.72878   0.69794   0.64419   1.000
    O735    O    0.74559   0.63447   0.64630   1.000
    O736    O    0.22880   0.69794   0.64419   1.000
    O737    O    0.24561   0.63448   0.64630   1.000
    O738    O    0.86971   0.03862   0.63765   1.000
    O739    O    0.91783   0.07109   0.65479   1.000
    O740    O    0.36972   0.03862   0.63765   1.000
    O741    O    0.41784   0.07109   0.65478   1.000
    O742    O    0.59340   0.53610   0.65947   1.000
    O743    O    0.09342   0.53609   0.65947   1.000
    O744    O    0.36835   0.97869   0.65829   1.000
    O745    O    0.86834   0.97869   0.65829   1.000
    O746    O    0.56215   0.38119   0.66315   1.000
    O747    O    0.60595   0.32912   0.67106   1.000
    O748    O    0.06216   0.38119   0.66319   1.000
    O749    O    0.10597   0.32912   0.67106   1.000
    O750    O    0.97100   0.23332   0.68527   1.000
    O751    O    0.47101   0.23331   0.68527   1.000
    O752    O    0.16746   0.74153   0.70417   1.000
    O753    O    0.66744   0.74152   0.70417   1.000
    O754    O    0.59892   0.59284   0.67134   1.000
    O755    O    0.60036   0.64385   0.69812   1.000
    O756    O    0.09895   0.59284   0.67134   1.000
    O757    O    0.10039   0.64385   0.69811   1.000
    O758    O    0.15130   0.27307   0.68184   1.000
    O759    O    0.18825   0.22579   0.70135   1.000
    O760    O    0.65128   0.27306   0.68186   1.000
    O761    O    0.68823   0.22579   0.70136   1.000
    O762    O    0.43836   0.12189   0.70847   1.000
    O763    O    0.46259   0.01654   0.70953   1.000
    O764    O    0.93834   0.12189   0.70848   1.000
    O765    O    0.96259   0.01655   0.70954   1.000
    O766    O    0.58212   0.54757   0.71962   1.000
    O767    O    0.08215   0.54757   0.71962   1.000
    O768    O    0.12858   0.31791   0.72715   1.000
    O769    O    0.62856   0.31790   0.72719   1.000
    O770    O    0.12745   0.07372   0.71095   1.000
    O771    O    0.07933   0.06096   0.73281   1.000
    O772    O    0.62744   0.07370   0.71099   1.000
    O773    O    0.57932   0.06095   0.73281   1.000
    O774    O    0.99610   0.92932   0.72566   1.000
    O775    O    0.03047   0.86962   0.73889   1.000
    O776    O    0.49609   0.92932   0.72566   1.000
    O777    O    0.53045   0.86961   0.73889   1.000
    O778    O    0.93799   0.20201   0.72571   1.000
    O779    O    0.93867   0.25979   0.74088   1.000
    O780    O    0.43801   0.20201   0.72571   1.000
    O781    O    0.43869   0.25979   0.74059   1.000
    O782    O    0.22141   0.18506   0.73238   1.000
    O783    O    0.18889   0.24047   0.75928   1.000
    O784    O    0.72140   0.18505   0.73238   1.000
    O785    O    0.68887   0.24047   0.75929   1.000
    O786    O    0.11007   0.70410   0.74151   1.000
    O787    O    0.08468   0.63029   0.76105   1.000
    O788    O    0.61005   0.70409   0.74152   1.000
    O789    O    0.58466   0.63029   0.76106   1.000
    O790    O    0.90125   0.18215   0.77280   1.000
    O791    O    0.40127   0.18214   0.77280   1.000
    O792    O    0.46629   0.95248   0.78042   1.000
    O793    O    0.96628   0.95249   0.78042   1.000
    O794    O    0.22564   0.43990   0.76732   1.000
    O795    O    0.72562   0.43991   0.76733   1.000
    O796    O    0.58296   0.79582   0.75837   1.000
    O797    O    0.64051   0.75849   0.79562   1.000
    O798    O    0.08297   0.79583   0.75837   1.000
    O799    O    0.14052   0.75849   0.79562   1.000
    O800    O    0.57333   0.57068   0.77435   1.000
    O801    O    0.57523   0.48350   0.79050   1.000
    O802    O    0.07335   0.57068   0.77435   1.000
    O803    O    0.07524   0.48351   0.79050   1.000
    O804    O    0.15160   0.29810   0.77443   1.000
    O805    O    0.10323   0.37815   0.79155   1.000
    O806    O    0.65159   0.29810   0.77446   1.000
    O807    O    0.60322   0.37815   0.79158   1.000
    O808    O    0.02171   0.85605   0.80183   1.000
    O809    O    0.52169   0.85604   0.80183   1.000
    O810    O    0.92984   0.31534   0.76774   1.000
    O811    O    0.42986   0.31533   0.76745   1.000
    O812    O    0.40164   0.27449   0.79834   1.000
    O813    O    0.90162   0.27450   0.79864   1.000
    O814    O    0.76934   0.42672   0.78906   1.000
    O815    O    0.26936   0.42672   0.78905   1.000
    O816    O    0.17998   0.26687   0.81505   1.000
    O817    O    0.67997   0.26687   0.81505   1.000
    O818    O    0.56333   0.60760   0.82950   1.000
    O819    O    0.06334   0.60760   0.82990   1.000
    O820    O    0.22250   0.41494   0.83206   1.000
    O821    O    0.72248   0.41495   0.83203   1.000
    O822    O    0.37872   0.22709   0.81803   1.000
    O823    O    0.35618   0.17089   0.82868   1.000
    O824    O    0.87870   0.22710   0.81803   1.000
    O825    O    0.85616   0.17089   0.82868   1.000
    O826    O    0.48163   0.90715   0.82866   1.000
    O827    O    0.44205   0.96400   0.84058   1.000
    O828    O    0.98163   0.90716   0.82866   1.000
    O829    O    0.94204   0.96400   0.84054   1.000
    O830    O    0.53054   0.42886   0.84532   1.000
    O831    O    0.60896   0.41895   0.85624   1.000
    O832    O    0.03054   0.42887   0.84532   1.000
    O833    O    0.10898   0.41894   0.85623   1.000
    O834    O    0.33464   0.11867   0.83639   1.000
    O835    O    0.83463   0.11867   0.83639   1.000
    O836    O    0.69751   0.61882   0.85581   1.000
    O837    O    0.19754   0.61881   0.85580   1.000
    O838    O    0.93673   0.52121   0.84203   1.000
    O839    O    0.43674   0.52121   0.84204   1.000
    O840    O    0.85336   0.29133   0.87854   1.000
    O841    O    0.35338   0.29132   0.87854   1.000
    O842    O    0.00510   0.85414   0.86515   1.000
    O843    O    0.50509   0.85413   0.86515   1.000
    O844    O    0.13646   0.86556   0.85353   1.000
    O845    O    0.63645   0.86557   0.85352   1.000
    O846    O    0.65026   0.80210   0.85560   1.000
    O847    O    0.66589   0.73903   0.86933   1.000
    O848    O    0.15028   0.80210   0.85560   1.000
    O849    O    0.16591   0.73903   0.86933   1.000
    O850    O    0.81273   0.16232   0.88080   1.000
    O851    O    0.31274   0.16231   0.88080   1.000
    O852    O    0.95772   0.46127   0.86261   1.000
    O853    O    0.90392   0.48111   0.86870   1.000
    O854    O    0.45773   0.46126   0.86261   1.000
    O855    O    0.40393   0.48111   0.86871   1.000
    O856    O    0.96877   0.39993   0.88591   1.000
    O857    O    0.46878   0.39992   0.88591   1.000
    O858    O    0.65141   0.82905   0.90662   1.000
    O859    O    0.15143   0.82904   0.90663   1.000
    O860    O    0.55326   0.64409   0.88050   1.000
    O861    O    0.54139   0.58641   0.89413   1.000
    O862    O    0.67222   0.40592   0.88073   1.000
    O863    O    0.71883   0.38538   0.90006   1.000
    O864    O    0.17223   0.40591   0.88076   1.000
    O865    O    0.21884   0.38537   0.90009   1.000
    O866    O    0.05327   0.64410   0.88093   1.000
    O867    O    0.04140   0.58641   0.89453   1.000
    O868    O    0.85048   0.48607   0.88140   1.000
    O869    O    0.35049   0.48606   0.88141   1.000
    O870    O    0.88245   0.43024   0.89597   1.000
    O871    O    0.38247   0.43023   0.89597   1.000
    O872    O    0.18712   0.67006   0.89225   1.000
    O873    O    0.20884   0.60530   0.91374   1.000
    O874    O    0.68710   0.67006   0.89225   1.000
    O875    O    0.70882   0.60530   0.91374   1.000
    O876    O    0.13257   0.39537   0.93022   1.000
    O877    O    0.63255   0.39538   0.93023   1.000
    O878    O    0.67688   0.72583   0.92906   1.000
    O879    O    0.17689   0.72582   0.92906   1.000
    O880    O    0.92217   0.38062   0.90645   1.000
    O881    O    0.97248   0.33177   0.91546   1.000
    O882    O    0.42218   0.38061   0.90644   1.000
    O883    O    0.47249   0.33177   0.91547   1.000
    O884    O    0.35901   0.35603   0.91940   1.000
    O885    O    0.85899   0.35604   0.91941   1.000
    O886    O    0.01942   0.28862   0.92709   1.000
    O887    O    0.51943   0.28861   0.92710   1.000
    O888    O    0.78063   0.34489   0.92911   1.000
    O889    O    0.28065   0.34488   0.92911   1.000
    O890    O    0.97564   0.26695   0.94055   1.000
    O891    O    0.47565   0.26694   0.94055   1.000
    O892    O    0.20786   0.36201   0.96130   1.000
    O893    O    0.70784   0.36202   0.96130   1.000
    O894    O    0.66794   0.78074   0.95207   1.000
    O895    O    0.65660   0.84105   0.96343   1.000
    O896    O    0.16796   0.78073   0.95207   1.000
    O897    O    0.15662   0.84104   0.96343   1.000
    O898    O    0.65407   0.36807   0.98103   1.000
    O899    O    0.15408   0.36807   0.98103   1.000
loop_
    _geom_bond_atom_site_label_1
    _geom_bond_atom_site_label_2
    _geom_bond_distance
    _geom_bond_site_symmetry_2
    _ccdc_geom_bond_type
    C89    O420      0.54213  1_554   S
    C197   O420      0.54213      .   S
    C88    O421      0.54211  1_554   S
    C196   O421      0.54211      .   S
    C139   O422      0.69516      .   S
    C141   O422      0.69516      .   S
    C139   O423      0.68316      .   S
    C259   O423      0.68316      .   S
    C139   O424      0.54193  1_554   S
    C47    O424      0.54193      .   S
    C138   O425      0.69513      .   S
    C140   O425      0.69513      .   S
    C138   O426      0.68318      .   S
    C258   O426      0.68318      .   S
    C138   O427      0.54193  1_554   S
    C46    O427      0.54193      .   S
    C23    O428      0.54155      .   S
    C103   O428      0.54155      .   S
    C22    O429      0.54164      .   S
    C102   O429      0.54164      .   S
    C141   O430      0.68365      .   S
    C257   O430      0.68365      .   S
    C141   O431      0.54211      .   S
    C49    O431      0.54211  1_556   S
    C140   O432      0.68364      .   S
    C256   O432      0.68364      .   S
    C140   O433      0.54212      .   S
    C48    O433      0.54212  1_556   S
    C222   O434      0.68274      .   S
    C102   O434      0.68274      .   S
    C222   O435      0.67735      .   S
    C104   O435      0.67735      .   S
    C222   O436      1.03015  1_554   S
    C0     O436      1.03015      .   S
    C223   O437      0.68269      .   S
    C103   O437      0.68269      .   S
    C223   O438      0.67722      .   S
    C105   O438      0.67722      .   S
    C223   O439      1.03031  1_554   S
    C1     O439      1.03031      .   S
    C385   O440      0.62514      .   S
    C289   O440      0.62514      .   S
    C384   O441      0.62513      .   S
    C288   O441      0.62513      .   S
    C86    O442      0.54191      .   S
    C194   O442      0.54191  1_556   S
    C87    O443      0.54192      .   S
    C195   O443      0.54192  1_556   S
    C103   O444      0.69731      .   S
    C101   O444      0.69731      .   S
    C102   O445      0.69723      .   S
    C100   O445      0.69723      .   S
    C343   O446      0.62629      .   S
    C225   O446      0.62629      .   S
    C342   O447      0.62631      .   S
    C224   O447      0.62631      .   S
    C258   O448      1.01628      .   S
    C8     O448      1.01628      .   S
    C258   O449      0.67549      .   S
    C136   O449      0.67549      .   S
    C259   O450      1.01628      .   S
    C9     O450      1.01628      .   S
    C259   O451      0.67548      .   S
    C137   O451      0.67548      .   S
    C289   O452      0.62485      .   S
    C388   O452      0.62485      .   S
    C289   O453      0.71271      .   S
    C165   O453      0.71271      .   S
    C288   O454      0.62503  1_455   S
    C389   O454      0.62503      .   S
    C288   O455      0.71269      .   S
    C164   O455      0.71269      .   S
    C9     O456      1.02539      .   S
    C285   O456      1.02539      .   S
    C9     O457      1.03497      .   S
    C283   O457      1.03497      .   S
    C9     O458      1.03029      .   S
    C279   O458      1.03029  1_556   S
    C8     O459      1.02524      .   S
    C284   O459      1.02524      .   S
    C8     O460      1.03503      .   S
    C282   O460      1.03503      .   S
    C8     O461      1.03030      .   S
    C278   O461      1.03030  1_556   S
    C363   O462      0.62640      .   S
    C253   O462      0.62640      .   S
    C362   O463      0.62629      .   S
    C252   O463      0.62629      .   S
    C386   O464      0.62797      .   S
    C334   O464      0.62797      .   S
    C387   O465      0.62747      .   S
    C335   O465      0.62747      .   S
    C285   O466      0.67699      .   S
    C165   O466      0.67699      .   S
    C285   O467      0.68381      .   S
    C169   O467      0.68381      .   S
    C284   O468      0.67717      .   S
    C164   O468      0.67717      .   S
    C284   O469      0.68363      .   S
    C168   O469      0.68363      .   S
    C164   O470      0.67553      .   S
    C286   O470      0.67553      .   S
    C165   O471      0.67551      .   S
    C287   O471      0.67551      .   S
    C104   O472      0.70922      .   S
    C224   O472      0.70922      .   S
    C104   O473      0.67488      .   S
    C220   O473      0.67488      .   S
    C105   O474      0.70921      .   S
    C225   O474      0.70921      .   S
    C105   O475      0.67483      .   S
    C221   O475      0.67483      .   S
    C31    O476      0.54301      .   S
    C115   O476      0.54301      .   S
    C30    O477      0.54263      .   S
    C114   O477      0.54263      .   S
    C257   O478      0.67717      .   S
    C137   O478      0.67717      .   S
    C257   O479      1.02518      .   S
    C5     O479      1.02518      .   S
    C256   O480      0.67715      .   S
    C136   O480      0.67715      .   S
    C256   O481      1.02024      .   S
    C4     O481      1.02024      .   S
    C361   O482      0.62789      .   S
    C253   O482      0.62789      .   S
    C360   O483      0.62779      .   S
    C252   O483      0.62779      .   S
    C225   O484      0.62778      .   S
    C341   O484      0.62778      .   S
    C224   O485      0.62775      .   S
    C340   O485      0.62775      .   S
    C169   O486      0.54206      .   S
    C69    O486      0.54206      .   S
    C169   O487      0.69522      .   S
    C167   O487      0.69522      .   S
    C168   O488      0.54202      .   S
    C68    O488      0.54202      .   S
    C168   O489      0.69521      .   S
    C166   O489      0.69521      .   S
    C253   O490      0.70085      .   S
    C133   O490      0.70085      .   S
    C252   O491      0.70915      .   S
    C132   O491      0.70915      .   S
    C137   O492      0.71287      .   S
    C261   O492      0.71287      .   S
    C136   O493      0.71294      .   S
    C260   O493      0.71294      .   S
    C100   O494      0.68245      .   S
    C220   O494      0.68245      .   S
    C100   O495      0.54273      .   S
    C20    O495      0.54273      .   S
    C101   O496      0.68245      .   S
    C221   O496      0.68245      .   S
    C101   O497      0.54275      .   S
    C21    O497      0.54275      .   S
    C287   O498      0.68317      .   S
    C167   O498      0.68317      .   S
    C287   O499      1.01563      .   S
    C4     O499      1.01563      .   S
    C286   O500      0.68317      .   S
    C166   O500      0.68317      .   S
    C286   O501      1.01642  1_455   S
    C5     O501      1.01642      .   S
    C33    O502      0.54161      .   S
    C117   O502      0.54161      .   S
    C32    O503      0.54161      .   S
    C116   O503      0.54161      .   S
    C167   O504      0.54180      .   S
    C67    O504      0.54180      .   S
    C166   O505      0.54182      .   S
    C66    O505      0.54182      .   S
    C335   O506      0.62747      .   S
    C357   O506      0.62747      .   S
    C335   O507      0.70875      .   S
    C215   O507      0.70875      .   S
    C334   O508      0.62749      .   S
    C356   O508      0.62749      .   S
    C334   O509      0.70872      .   S
    C214   O509      0.70872      .   S
    C44    O510      0.54179      .   S
    C134   O510      0.54179      .   S
    C45    O511      0.54178      .   S
    C135   O511      0.54178      .   S
    C220   O512      1.03066      .   S
    C16    O512      1.03066      .   S
    C221   O513      1.03072      .   S
    C17    O513      1.03072      .   S
    C114   O514      0.69738      .   S
    C117   O514      0.69738      .   S
    C114   O515      0.68242      .   S
    C234   O515      0.68242      .   S
    C115   O516      0.69747  1_655   S
    C116   O516      0.69747      .   S
    C115   O517      0.68242      .   S
    C235   O517      0.68242      .   S
    C283   O518      0.67696      .   S
    C215   O518      0.67696      .   S
    C283   O519      0.68222      .   S
    C163   O519      0.68222      .   S
    C282   O520      0.67681      .   S
    C214   O520      0.67681      .   S
    C282   O521      0.68223      .   S
    C162   O521      0.68223      .   S
    C4     O522      1.03806      .   S
    C254   O522      1.03806      .   S
    C4     O523      1.03252      .   S
    C250   O523      1.03252      .   S
    C5     O524      1.03490      .   S
    C255   O524      1.03490      .   S
    C5     O525      1.03016      .   S
    C251   O525      1.03016      .   S
    C117   O526      0.68265      .   S
    C237   O526      0.68265      .   S
    C116   O527      0.68264      .   S
    C236   O527      0.68264      .   S
    C214   O528      0.67712      .   S
    C240   O528      0.67712      .   S
    C215   O529      0.67693      .   S
    C241   O529      0.67693      .   S
    C261   O530      0.62479      .   S
    C369   O530      0.62479      .   S
    C261   O531      0.62504      .   S
    C365   O531      0.62504      .   S
    C260   O532      0.62480      .   S
    C368   O532      0.62480      .   S
    C260   O533      0.62511      .   S
    C364   O533      0.62511      .   S
    C133   O534      0.68213      .   S
    C251   O534      0.68213      .   S
    C133   O535      0.67926      .   S
    C249   O535      0.67926      .   S
    C132   O536      0.67716      .   S
    C250   O536      0.67716      .   S
    C132   O537      0.67488      .   S
    C248   O537      0.67488      .   S
    C134   O538      0.68216      .   S
    C254   O538      0.68216      .   S
    C134   O539      0.69608      .   S
    C204   O539      0.69608      .   S
    C135   O540      0.68217      .   S
    C255   O540      0.68217      .   S
    C135   O541      0.69607      .   S
    C205   O541      0.69607      .   S
    C163   O542      0.54178      .   S
    C65    O542      0.54178      .   S
    C163   O543      0.69609      .   S
    C121   O543      0.69609      .   S
    C162   O544      0.54179      .   S
    C64    O544      0.54179      .   S
    C162   O545      0.69604      .   S
    C120   O545      0.69604      .   S
    C235   O546      1.03015      .   S
    C17    O546      1.03015      .   S
    C235   O547      0.67488      .   S
    C119   O547      0.67488      .   S
    C234   O548      1.03014      .   S
    C16    O548      1.03014      .   S
    C234   O549      0.67488      .   S
    C118   O549      0.67488      .   S
    C254   O550      0.67697      .   S
    C216   O550      0.67697      .   S
    C255   O551      0.67696      .   S
    C217   O551      0.67696      .   S
    C250   O552      0.68233      .   S
    C130   O552      0.68233      .   S
    C251   O553      0.68274      .   S
    C131   O553      0.68274      .   S
    C354   O554      0.62542      .   S
    C246   O554      0.62542      .   S
    C355   O555      0.62517      .   S
    C247   O555      0.62517      .   S
    C16    O556      1.03040      .   S
    C248   O556      1.03040      .   S
    C16    O557      1.03074      .   S
    C262   O557      1.03074      .   S
    C17    O558      1.03031      .   S
    C249   O558      1.03031      .   S
    C17    O559      1.03030      .   S
    C263   O559      1.03030      .   S
    C236   O560      0.67725      .   S
    C119   O560      0.67725  1_655   S
    C236   O561      1.03023  1_545   S
    C2     O561      1.03023      .   S
    C237   O562      0.67716      .   S
    C118   O562      0.67716      .   S
    C237   O563      1.03018  1_545   S
    C3     O563      1.03018      .   S
    C240   O564      0.68213      .   S
    C120   O564      0.68213      .   S
    C240   O565      1.03476      .   S
    C2     O565      1.03476      .   S
    C241   O566      0.68212      .   S
    C121   O566      0.68212      .   S
    C241   O567      1.03469      .   S
    C3     O567      1.03469      .   S
    C94    O568      0.54179      .   S
    C204   O568      0.54179      .   S
    C95    O569      0.54180      .   S
    C205   O569      0.54180      .   S
    C249   O570      0.68244      .   S
    C129   O570      0.68244      .   S
    C248   O571      0.68235      .   S
    C128   O571      0.68235      .   S
    C204   O572      0.68222      .   S
    C324   O572      0.68222      .   S
    C205   O573      0.68223      .   S
    C325   O573      0.68223      .   S
    C358   O574      0.62487      .   S
    C246   O574      0.62487      .   S
    C359   O575      0.62482      .   S
    C247   O575      0.62482      .   S
    C120   O576      0.54187      .   S
    C34    O576      0.54187      .   S
    C121   O577      0.54183      .   S
    C35    O577      0.54183      .   S
    C119   O578      0.70914      .   S
    C239   O578      0.70914      .   S
    C118   O579      0.70915      .   S
    C238   O579      0.70915      .   S
    C246   O580      0.71284      .   S
    C122   O580      0.71284      .   S
    C247   O581      0.71283      .   S
    C123   O581      0.71283      .   S
    C217   O582      0.67697      .   S
    C325   O582      0.67697      .   S
    C217   O583      0.70884      .   S
    C337   O583      0.70884      .   S
    C216   O584      0.67697      .   S
    C324   O584      0.67697      .   S
    C216   O585      0.70879      .   S
    C336   O585      0.70879      .   S
    C130   O586      0.69738      .   S
    C128   O586      0.69738      .   S
    C130   O587      0.54186      .   S
    C42    O587      0.54186      .   S
    C131   O588      0.69735      .   S
    C129   O588      0.69735      .   S
    C131   O589      0.54150      .   S
    C43    O589      0.54150      .   S
    C3     O590      1.01660      .   S
    C329   O590      1.01660      .   S
    C3     O591      1.02502      .   S
    C242   O591      1.02502      .   S
    C2     O592      1.01661      .   S
    C328   O592      1.01661      .   S
    C2     O593      1.02519      .   S
    C243   O593      1.02519  1_655   S
    C366   O594      0.62746      .   S
    C336   O594      0.62746      .   S
    C367   O595      0.62746      .   S
    C337   O595      0.62746      .   S
    C370   O596      0.62781      .   S
    C266   O596      0.62781      .   S
    C371   O597      0.62777      .   S
    C267   O597      0.62777      .   S
    C96    O598      0.54186      .   S
    C208   O598      0.54186  1_565   S
    C97    O599      0.54185      .   S
    C209   O599      0.54185  1_565   S
    C325   O600      1.03459      .   S
    C15    O600      1.03459      .   S
    C324   O601      1.03462      .   S
    C14    O601      1.03462      .   S
    C129   O602      0.54267      .   S
    C41    O602      0.54267      .   S
    C128   O603      0.54266      .   S
    C40    O603      0.54266      .   S
    C51    O604      0.54268      .   S
    C143   O604      0.54268      .   S
    C50    O605      0.54268      .   S
    C142   O605      0.54268      .   S
    C263   O606      0.68266      .   S
    C143   O606      0.68266      .   S
    C263   O607      0.67525      .   S
    C147   O607      0.67525      .   S
    C262   O608      0.68240      .   S
    C142   O608      0.68240      .   S
    C262   O609      0.67492      .   S
    C146   O609      0.67492      .   S
    C336   O610      0.62743      .   S
    C416   O610      0.62743      .   S
    C337   O611      0.62732      .   S
    C417   O611      0.62732      .   S
    C208   O612      0.68313      .   S
    C328   O612      0.68313      .   S
    C208   O613      0.69482      .   S
    C210   O613      0.69482      .   S
    C209   O614      0.68313      .   S
    C329   O614      0.68313      .   S
    C209   O615      0.69521      .   S
    C211   O615      0.69521      .   S
    C328   O616      0.67542      .   S
    C206   O616      0.67542      .   S
    C329   O617      0.67544      .   S
    C207   O617      0.67544      .   S
    C142   O618      0.69741      .   S
    C144   O618      0.69741      .   S
    C143   O619      0.69741      .   S
    C145   O619      0.69741      .   S
    C123   O620      0.67720      .   S
    C243   O620      0.67720      .   S
    C123   O621      0.67547      .   S
    C245   O621      0.67547      .   S
    C122   O622      0.67720      .   S
    C242   O622      0.67720      .   S
    C122   O623      0.67548      .   S
    C244   O623      0.67548      .   S
    C239   O624      0.62776      .   S
    C351   O624      0.62776      .   S
    C239   O625      0.62637      .   S
    C353   O625      0.62637      .   S
    C238   O626      0.62776      .   S
    C350   O626      0.62776      .   S
    C238   O627      0.62636      .   S
    C352   O627      0.62636      .   S
    C98    O628      0.54240  1_545   S
    C210   O628      0.54240      .   S
    C99    O629      0.54217  1_545   S
    C211   O629      0.54217      .   S
    C210   O630      0.68385      .   S
    C326   O630      0.68385      .   S
    C211   O631      0.68370      .   S
    C327   O631      0.68370      .   S
    C267   O632      0.70914      .   S
    C147   O632      0.70914      .   S
    C267   O633      0.62637      .   S
    C373   O633      0.62637      .   S
    C266   O634      0.70913      .   S
    C146   O634      0.70913      .   S
    C266   O635      0.62640      .   S
    C372   O635      0.62640      .   S
    C242   O636      0.68364      .   S
    C126   O636      0.68364      .   S
    C243   O637      0.68362      .   S
    C127   O637      0.68362      .   S
    C147   O638      0.67719      .   S
    C265   O638      0.67719      .   S
    C146   O639      0.67717      .   S
    C264   O639      0.67717      .   S
    C206   O640      0.67720      .   S
    C326   O640      0.67720      .   S
    C206   O641      0.71267      .   S
    C330   O641      0.71267      .   S
    C207   O642      0.67719      .   S
    C327   O642      0.67719      .   S
    C207   O643      0.71268      .   S
    C331   O643      0.71268      .   S
    C326   O644      1.02525      .   S
    C14    O644      1.02525      .   S
    C327   O645      1.02525      .   S
    C15    O645      1.02525      .   S
    C419   O646      0.62482      .   S
    C331   O646      0.62482      .   S
    C418   O647      0.62481      .   S
    C330   O647      0.62481      .   S
    C331   O648      0.62485      .   S
    C415   O648      0.62485      .   S
    C330   O649      0.62521      .   S
    C414   O649      0.62521      .   S
    C15    O650      1.01660      .   S
    C245   O650      1.01660      .   S
    C15    O651      1.03037      .   S
    C321   O651      1.03037      .   S
    C14    O652      1.01658      .   S
    C244   O652      1.01658      .   S
    C14    O653      1.03037      .   S
    C320   O653      1.03037      .   S
    C244   O654      0.68311      .   S
    C124   O654      0.68311      .   S
    C245   O655      0.67578      .   S
    C125   O655      0.67578      .   S
    C145   O656      0.68265      .   S
    C265   O656      0.68265      .   S
    C145   O657      0.54159      .   S
    C53    O657      0.54159      .   S
    C144   O658      0.68264      .   S
    C264   O658      0.68264      .   S
    C144   O659      0.54160      .   S
    C52    O659      0.54160      .   S
    C76    O660      0.54183      .   S
    C180   O660      0.54183      .   S
    C77    O661      0.54182      .   S
    C181   O661      0.54182      .   S
    C264   O662      1.03039      .   S
    C6     O662      1.03039      .   S
    C265   O663      1.03036      .   S
    C7     O663      1.03036      .   S
    C127   O664      0.69558      .   S
    C125   O664      0.69558      .   S
    C127   O665      0.54207      .   S
    C39    O665      0.54207      .   S
    C126   O666      0.69518      .   S
    C124   O666      0.69518      .   S
    C126   O667      0.54209      .   S
    C38    O667      0.54209      .   S
    C125   O668      0.54744      .   S
    C37    O668      0.54744      .   S
    C124   O669      0.54184      .   S
    C36    O669      0.54184      .   S
    C78    O670      0.54208      .   S
    C182   O670      0.54208      .   S
    C79    O671      0.54207      .   S
    C183   O671      0.54207      .   S
    C180   O672      0.69520      .   S
    C182   O672      0.69520      .   S
    C180   O673      0.68310      .   S
    C300   O673      0.68310      .   S
    C181   O674      0.69519      .   S
    C183   O674      0.69519      .   S
    C181   O675      0.68313      .   S
    C301   O675      0.68313      .   S
    C93    O676      0.54157      .   S
    C201   O676      0.54157      .   S
    C92    O677      0.54157      .   S
    C200   O677      0.54157      .   S
    C182   O678      0.68363      .   S
    C298   O678      0.68363      .   S
    C183   O679      0.68366      .   S
    C299   O679      0.68366      .   S
    C321   O680      0.68267      .   S
    C201   O680      0.68267      .   S
    C321   O681      0.67718      .   S
    C203   O681      0.67718      .   S
    C320   O682      0.68266      .   S
    C200   O682      0.68266      .   S
    C320   O683      0.67719      .   S
    C202   O683      0.67719      .   S
    C374   O684      0.62525      .   S
    C274   O684      0.62525      .   S
    C375   O685      0.62528      .   S
    C275   O685      0.62528      .   S
    C201   O686      0.69741      .   S
    C199   O686      0.69741      .   S
    C200   O687      0.69742      .   S
    C198   O687      0.69742      .   S
    C412   O688      0.62637      .   S
    C322   O688      0.62637      .   S
    C413   O689      0.62637      .   S
    C323   O689      0.62637      .   S
    C301   O690      1.01661      .   S
    C7     O690      1.01661      .   S
    C301   O691      0.67548      .   S
    C179   O691      0.67548      .   S
    C300   O692      1.01659      .   S
    C6     O692      1.01659      .   S
    C300   O693      0.67547      .   S
    C178   O693      0.67547      .   S
    C6     O694      1.02520      .   S
    C270   O694      1.02520      .   S
    C6     O695      1.03464      .   S
    C268   O695      1.03464      .   S
    C7     O696      1.02521      .   S
    C271   O696      1.02521      .   S
    C7     O697      1.03467      .   S
    C269   O697      1.03467      .   S
    C274   O698      0.62481      .   S
    C378   O698      0.62481      .   S
    C274   O699      0.71270      .   S
    C150   O699      0.71270      .   S
    C275   O700      0.62483      .   S
    C379   O700      0.62483      .   S
    C275   O701      0.71270      .   S
    C151   O701      0.71270      .   S
    C392   O702      0.62637      .   S
    C294   O702      0.62637      .   S
    C393   O703      0.62636      .   S
    C295   O703      0.62636      .   S
    C376   O704      0.62742      .   S
    C338   O704      0.62742      .   S
    C377   O705      0.62732      .   S
    C339   O705      0.62732      .   S
    C270   O706      0.67717      .   S
    C150   O706      0.67717      .   S
    C270   O707      0.68366      .   S
    C154   O707      0.68366      .   S
    C271   O708      0.67718      .   S
    C151   O708      0.67718      .   S
    C271   O709      0.68370      .   S
    C155   O709      0.68370      .   S
    C150   O710      0.67544      .   S
    C272   O710      0.67544      .   S
    C151   O711      0.67542      .   S
    C273   O711      0.67542      .   S
    C202   O712      0.70916      .   S
    C322   O712      0.70916      .   S
    C202   O713      0.67490      .   S
    C318   O713      0.67490      .   S
    C203   O714      0.70917      .   S
    C323   O714      0.70917      .   S
    C203   O715      0.67491      .   S
    C319   O715      0.67491      .   S
    C80    O716      0.54266      .   S
    C184   O716      0.54266      .   S
    C81    O717      0.54266      .   S
    C185   O717      0.54266      .   S
    C391   O718      0.62775      .   S
    C295   O718      0.62775      .   S
    C390   O719      0.62776      .   S
    C294   O719      0.62776      .   S
    C298   O720      0.67721      .   S
    C178   O720      0.67721      .   S
    C298   O721      1.02517  1_455   S
    C11    O721      1.02517      .   S
    C299   O722      0.67721      .   S
    C179   O722      0.67721      .   S
    C299   O723      1.02492      .   S
    C10    O723      1.02492      .   S
    C323   O724      0.62778      .   S
    C411   O724      0.62778      .   S
    C322   O725      0.62782      .   S
    C410   O725      0.62782      .   S
    C154   O726      0.54212      .   S
    C58    O726      0.54212  1_565   S
    C154   O727      0.69530      .   S
    C152   O727      0.69530      .   S
    C155   O728      0.54217      .   S
    C59    O728      0.54217  1_565   S
    C155   O729      0.69521      .   S
    C153   O729      0.69521      .   S
    C295   O730      0.70913      .   S
    C175   O730      0.70913      .   S
    C294   O731      0.70913      .   S
    C174   O731      0.70913      .   S
    C179   O732      0.71281      .   S
    C303   O732      0.71281      .   S
    C178   O733      0.71277      .   S
    C302   O733      0.71277      .   S
    C199   O734      0.68241      .   S
    C319   O734      0.68241      .   S
    C199   O735      0.54269      .   S
    C91    O735      0.54269      .   S
    C198   O736      0.68239      .   S
    C318   O736      0.68239      .   S
    C198   O737      0.54269      .   S
    C90    O737      0.54269      .   S
    C273   O738      0.68313      .   S
    C153   O738      0.68313      .   S
    C273   O739      1.01661      .   S
    C11    O739      1.01661      .   S
    C272   O740      0.68314      .   S
    C152   O740      0.68314      .   S
    C272   O741      1.01644      .   S
    C10    O741      1.01644      .   S
    C83    O742      0.54157      .   S
    C187   O742      0.54157      .   S
    C82    O743      0.54158      .   S
    C186   O743      0.54158      .   S
    C152   O744      0.54183  1_545   S
    C56    O744      0.54183      .   S
    C153   O745      0.54183  1_545   S
    C57    O745      0.54183      .   S
    C339   O746      0.62724      .   S
    C407   O746      0.62724      .   S
    C339   O747      0.70891      .   S
    C219   O747      0.70891      .   S
    C338   O748      0.62746      .   S
    C406   O748      0.62746      .   S
    C338   O749      0.70875      .   S
    C218   O749      0.70875      .   S
    C75    O750      0.54178      .   S
    C177   O750      0.54178      .   S
    C74    O751      0.54184      .   S
    C176   O751      0.54184      .   S
    C318   O752      1.03070      .   S
    C18    O752      1.03070      .   S
    C319   O753      1.03066      .   S
    C19    O753      1.03066      .   S
    C185   O754      0.69739      .   S
    C187   O754      0.69739      .   S
    C185   O755      0.68235      .   S
    C305   O755      0.68235      .   S
    C184   O756      0.69737      .   S
    C186   O756      0.69737      .   S
    C184   O757      0.68219      .   S
    C304   O757      0.68219      .   S
    C268   O758      0.67697      .   S
    C218   O758      0.67697      .   S
    C268   O759      0.68221      .   S
    C148   O759      0.68221      .   S
    C269   O760      0.67695      .   S
    C219   O760      0.67695      .   S
    C269   O761      0.68224      .   S
    C149   O761      0.68224      .   S
    C10    O762      1.03486      .   S
    C296   O762      1.03486      .   S
    C10    O763      1.03027      .   S
    C292   O763      1.03027  1_565   S
    C11    O764      1.03476      .   S
    C297   O764      1.03476      .   S
    C11    O765      1.03020      .   S
    C293   O765      1.03020  1_565   S
    C187   O766      0.68265      .   S
    C307   O766      0.68265      .   S
    C186   O767      0.68265      .   S
    C306   O767      0.68265      .   S
    C218   O768      0.67650      .   S
    C310   O768      0.67650      .   S
    C219   O769      0.67692      .   S
    C311   O769      0.67692      .   S
    C302   O770      0.62453      .   S
    C398   O770      0.62453      .   S
    C302   O771      0.62520      .   S
    C394   O771      0.62520      .   S
    C303   O772      0.62481      .   S
    C399   O772      0.62481      .   S
    C303   O773      0.62520      .   S
    C395   O773      0.62520      .   S
    C174   O774      0.67724  1_455   S
    C293   O774      0.67724      .   S
    C174   O775      0.67489      .   S
    C290   O775      0.67489      .   S
    C175   O776      0.67716      .   S
    C292   O776      0.67716      .   S
    C175   O777      0.67489      .   S
    C291   O777      0.67489      .   S
    C177   O778      0.68213      .   S
    C297   O778      0.68213      .   S
    C177   O779      0.69610      .   S
    C107   O779      0.69610      .   S
    C176   O780      0.68211      .   S
    C296   O780      0.68211      .   S
    C176   O781      0.69232      .   S
    C106   O781      0.69232      .   S
    C148   O782      0.54180      .   S
    C54    O782      0.54180      .   S
    C148   O783      0.69612      .   S
    C190   O783      0.69612      .   S
    C149   O784      0.54178      .   S
    C55    O784      0.54178      .   S
    C149   O785      0.69604      .   S
    C191   O785      0.69604      .   S
    C304   O786      1.03046      .   S
    C18    O786      1.03046      .   S
    C304   O787      0.67497      .   S
    C188   O787      0.67497      .   S
    C305   O788      1.03039      .   S
    C19    O788      1.03039      .   S
    C305   O789      0.67489      .   S
    C189   O789      0.67489      .   S
    C297   O790      0.67693      .   S
    C213   O790      0.67693      .   S
    C296   O791      0.67694      .   S
    C212   O791      0.67694      .   S
    C292   O792      0.68265      .   S
    C172   O792      0.68265      .   S
    C293   O793      0.68265      .   S
    C173   O793      0.68265      .   S
    C404   O794      0.62512      .   S
    C316   O794      0.62512      .   S
    C405   O795      0.62513      .   S
    C317   O795      0.62513      .   S
    C19    O796      1.03018      .   S
    C291   O796      1.03018      .   S
    C19    O797      1.03071      .   S
    C277   O797      1.03071      .   S
    C18    O798      1.03016      .   S
    C290   O798      1.03016      .   S
    C18    O799      1.03068      .   S
    C276   O799      1.03068      .   S
    C307   O800      0.67718      .   S
    C189   O800      0.67718      .   S
    C307   O801      1.03018      .   S
    C13    O801      1.03018      .   S
    C306   O802      0.67716      .   S
    C188   O802      0.67716      .   S
    C306   O803      1.03019      .   S
    C12    O803      1.03019      .   S
    C310   O804      0.68239      .   S
    C190   O804      0.68239      .   S
    C310   O805      1.03517      .   S
    C12    O805      1.03517      .   S
    C311   O806      0.68221      .   S
    C191   O806      0.68221      .   S
    C311   O807      1.03487      .   S
    C13    O807      1.03487      .   S
    C290   O808      0.68243      .   S
    C170   O808      0.68243      .   S
    C291   O809      0.68242      .   S
    C171   O809      0.68242      .   S
    C25    O810      0.54177      .   S
    C107   O810      0.54177      .   S
    C24    O811      0.54294      .   S
    C106   O811      0.54294      .   S
    C106   O812      0.68481      .   S
    C226   O812      0.68481      .   S
    C107   O813      0.68224      .   S
    C227   O813      0.68224      .   S
    C409   O814      0.62481      .   S
    C317   O814      0.62481      .   S
    C408   O815      0.62480      .   S
    C316   O815      0.62480      .   S
    C190   O816      0.54177      .   S
    C84    O816      0.54177      .   S
    C191   O817      0.54176      .   S
    C85    O817      0.54176      .   S
    C189   O818      0.70244      .   S
    C309   O818      0.70244      .   S
    C188   O819      0.70921      .   S
    C308   O819      0.70921      .   S
    C316   O820      0.71291      .   S
    C192   O820      0.71291      .   S
    C317   O821      0.71243      .   S
    C193   O821      0.71243      .   S
    C212   O822      0.67696      .   S
    C226   O822      0.67696      .   S
    C212   O823      0.70877      .   S
    C332   O823      0.70877      .   S
    C213   O824      0.67698      .   S
    C227   O824      0.67698      .   S
    C213   O825      0.70878      .   S
    C333   O825      0.70878      .   S
    C172   O826      0.69738      .   S
    C171   O826      0.69738      .   S
    C172   O827      0.54156      .   S
    C72    O827      0.54156      .   S
    C173   O828      0.69745      .   S
    C170   O828      0.69745  1_455   S
    C173   O829      0.54112      .   S
    C73    O829      0.54112      .   S
    C13    O830      1.01623      .   S
    C230   O830      1.01623      .   S
    C13    O831      1.02511      .   S
    C313   O831      1.02511      .   S
    C12    O832      1.01644      .   S
    C231   O832      1.01644  1_655   S
    C12    O833      1.02511      .   S
    C312   O833      1.02511      .   S
    C396   O834      0.62771      .   S
    C332   O834      0.62771      .   S
    C397   O835      0.62772      .   S
    C333   O835      0.62772      .   S
    C381   O836      0.62783      .   S
    C281   O836      0.62783      .   S
    C380   O837      0.62775      .   S
    C280   O837      0.62775      .   S
    C27    O838      0.54181      .   S
    C111   O838      0.54181      .   S
    C26    O839      0.54182      .   S
    C110   O839      0.54182      .   S
    C227   O840      1.03497      .   S
    C1     O840      1.03497      .   S
    C226   O841      1.03498      .   S
    C0     O841      1.03498      .   S
    C170   O842      0.54263      .   S
    C70    O842      0.54263      .   S
    C171   O843      0.54263      .   S
    C71    O843      0.54263      .   S
    C60    O844      0.54269      .   S
    C156   O844      0.54269      .   S
    C61    O845      0.54266      .   S
    C157   O845      0.54266      .   S
    C277   O846      0.68237      .   S
    C157   O846      0.68237      .   S
    C277   O847      0.67483      .   S
    C161   O847      0.67483      .   S
    C276   O848      0.68240      .   S
    C156   O848      0.68240      .   S
    C276   O849      0.67488      .   S
    C160   O849      0.67488      .   S
    C333   O850      0.62744      .   S
    C347   O850      0.62744      .   S
    C332   O851      0.62740      .   S
    C346   O851      0.62740      .   S
    C111   O852      0.68318      .   S
    C231   O852      0.68318      .   S
    C111   O853      0.69520      .   S
    C113   O853      0.69520      .   S
    C110   O854      0.68316      .   S
    C230   O854      0.68316      .   S
    C110   O855      0.69520      .   S
    C112   O855      0.69520      .   S
    C231   O856      0.67550      .   S
    C109   O856      0.67550      .   S
    C230   O857      0.67549      .   S
    C108   O857      0.67549      .   S
    C157   O858      0.69740      .   S
    C159   O858      0.69740      .   S
    C156   O859      0.69739      .   S
    C158   O859      0.69739      .   S
    C309   O860      0.63090      .   S
    C401   O860      0.63090      .   S
    C309   O861      0.62926      .   S
    C403   O861      0.62926      .   S
    C193   O862      0.67714      .   S
    C313   O862      0.67714      .   S
    C193   O863      0.67600      .   S
    C315   O863      0.67600      .   S
    C192   O864      0.67717      .   S
    C312   O864      0.67717      .   S
    C192   O865      0.67546      .   S
    C314   O865      0.67546      .   S
    C308   O866      0.62779      .   S
    C400   O866      0.62779      .   S
    C308   O867      0.62629      .   S
    C402   O867      0.62629      .   S
    C29    O868      0.54205      .   S
    C113   O868      0.54205      .   S
    C28    O869      0.54205      .   S
    C112   O869      0.54205      .   S
    C113   O870      0.68367      .   S
    C229   O870      0.68367      .   S
    C112   O871      0.68361      .   S
    C228   O871      0.68361      .   S
    C280   O872      0.70923      .   S
    C160   O872      0.70923      .   S
    C280   O873      0.62634      .   S
    C382   O873      0.62634      .   S
    C281   O874      0.70920      .   S
    C161   O874      0.70920      .   S
    C281   O875      0.62631      .   S
    C383   O875      0.62631      .   S
    C312   O876      0.68370      .   S
    C196   O876      0.68370      .   S
    C313   O877      0.68363      .   S
    C197   O877      0.68363      .   S
    C161   O878      0.67723      .   S
    C279   O878      0.67723      .   S
    C160   O879      0.67716      .   S
    C278   O879      0.67716      .   S
    C109   O880      0.67712      .   S
    C229   O880      0.67712      .   S
    C109   O881      0.71274      .   S
    C233   O881      0.71274      .   S
    C108   O882      0.67715      .   S
    C228   O882      0.67715      .   S
    C108   O883      0.71278      .   S
    C232   O883      0.71278      .   S
    C228   O884      1.02520      .   S
    C0     O884      1.02520      .   S
    C229   O885      1.02524      .   S
    C1     O885      1.02524      .   S
    C348   O886      0.62504      .   S
    C233   O886      0.62504  1_655   S
    C349   O887      0.62484      .   S
    C232   O887      0.62484      .   S
    C1     O888      1.01630      .   S
    C315   O888      1.01630      .   S
    C0     O889      1.01631      .   S
    C314   O889      1.01631      .   S
    C233   O890      0.62513      .   S
    C345   O890      0.62513      .   S
    C232   O891      0.62513      .   S
    C344   O891      0.62513      .   S
    C314   O892      0.68321      .   S
    C194   O892      0.68321      .   S
    C315   O893      0.68315      .   S
    C195   O893      0.68315      .   S
    C159   O894      0.68271      .   S
    C279   O894      0.68271      .   S
    C159   O895      0.54161      .   S
    C63    O895      0.54161      .   S
    C158   O896      0.68270      .   S
    C278   O896      0.68270      .   S
    C158   O897      0.54156      .   S
    C62    O897      0.54156      .   S
    C197   O898      0.69515      .   S
    C195   O898      0.69515      .   S
    C196   O899      0.69514      .   S
    C194   O899      0.69514      .   S
