# CIF file generated by openbabel 2.4.90, see http://openbabel.sf.net
data_I
_chemical_name_common ''
_cell_length_a 22.412
_cell_length_b 17.845
_cell_length_c 17.876
_cell_angle_alpha 79.011
_cell_angle_beta 71.829
_cell_angle_gamma 71.745
_space_group_name_H-M_alt 'P 1'
_space_group_name_Hall 'P 1'
loop_
    _symmetry_equiv_pos_as_xyz
    x,y,z
loop_
    _atom_site_label
    _atom_site_type_symbol
    _atom_site_fract_x
    _atom_site_fract_y
    _atom_site_fract_z
    _atom_site_occupancy
    Zr0     Zr   0.32835   0.32099   0.92840   1.000
    Zr1     Zr   0.82833   0.32100   0.92840   1.000
    Zr2     Zr   0.04678   0.92797   0.32128   1.000
    Zr3     Zr   0.54677   0.92797   0.32127   1.000
    Zr4     Zr   0.42175   0.57195   0.17800   1.000
    Zr5     Zr   0.92174   0.57194   0.17870   1.000
    Zr6     Zr   0.20322   0.17907   0.57159   1.000
    Zr7     Zr   0.70321   0.17907   0.57159   1.000
    Zr8     Zr   0.17163   0.67898   0.07160   1.000
    Zr9     Zr   0.67162   0.67899   0.07160   1.000
    Zr10    Zr   0.45320   0.07200   0.67870   1.000
    Zr11    Zr   0.95319   0.07201   0.67872   1.000
    Zr12    Zr   0.07822   0.42804   0.82131   1.000
    Zr13    Zr   0.57822   0.42803   0.82131   1.000
    Zr14    Zr   0.29676   0.82092   0.42841   1.000
    Zr15    Zr   0.79674   0.82091   0.42841   1.000
    Zr16    Zr   0.37476   0.24999   0.25006   1.000
    Zr17    Zr   0.87474   0.24999   0.25007   1.000
    Zr18    Zr   0.12523   0.74999   0.74993   1.000
    Zr19    Zr   0.62521   0.74998   0.74993   1.000
    N20     N    0.07940   0.60115   0.75505   1.000
    O21     O    0.09474   0.65262   0.74828   1.000
    O22     O    0.07732   0.54233   0.77277   1.000
    N23     N    0.75729   0.24507   0.39862   1.000
    O24     O    0.73486   0.22745   0.45739   1.000
    O25     O    0.79490   0.25176   0.34720   1.000
    N26     N    0.10557   0.78638   0.21352   1.000
    O27     O    0.12609   0.74751   0.16749   1.000
    O28     O    0.08360   0.83223   0.25252   1.000
    N29     N    0.41194   0.89279   0.40245   1.000
    O30     O    0.37206   0.86881   0.41581   1.000
    O31     O    0.45758   0.90578   0.37934   1.000
    N32     N    0.85557   0.71345   0.28655   1.000
    O33     O    0.83354   0.75230   0.33258   1.000
    O34     O    0.87615   0.66764   0.24749   1.000
    N35     N    0.16182   0.90242   0.39329   1.000
    O36     O    0.20749   0.87923   0.40628   1.000
    O37     O    0.12198   0.91565   0.36925   1.000
    N38     N    0.30975   0.60696   0.09757   1.000
    O39     O    0.35038   0.59400   0.12049   1.000
    O40     O    0.26454   0.63103   0.08423   1.000
    N41     N    0.64438   0.28653   0.71344   1.000
    O42     O    0.62380   0.33234   0.75251   1.000
    O43     O    0.66641   0.24768   0.66742   1.000
    N44     N    0.42059   0.39883   0.24495   1.000
    O45     O    0.42266   0.45765   0.22705   1.000
    O46     O    0.40525   0.34736   0.25171   1.000
    N47     N    0.17103   0.74510   0.89853   1.000
    O48     O    0.15578   0.75179   0.84708   1.000
    O49     O    0.17287   0.72744   0.95736   1.000
    N50     N    0.33816   0.09757   0.60670   1.000
    O51     O    0.29249   0.12076   0.59371   1.000
    O52     O    0.37800   0.08433   0.63074   1.000
    N53     N    0.83814   0.09757   0.60670   1.000
    O54     O    0.79248   0.12076   0.59371   1.000
    O55     O    0.87798   0.08433   0.63075   1.000
    N56     N    0.49229   0.10117   0.25505   1.000
    O57     O    0.45465   0.15266   0.24834   1.000
    O58     O    0.51483   0.04230   0.27275   1.000
    N59     N    0.60555   0.78638   0.21352   1.000
    O60     O    0.62607   0.74752   0.16749   1.000
    O61     O    0.58358   0.83224   0.25252   1.000
    N62     N    0.92057   0.39883   0.24484   1.000
    O63     O    0.90523   0.34736   0.25166   1.000
    O64     O    0.92265   0.45765   0.22717   1.000
    N65     N    0.80973   0.60697   0.09757   1.000
    O66     O    0.85036   0.59400   0.12067   1.000
    O67     O    0.76453   0.63103   0.08423   1.000
    N68     N    0.67101   0.74511   0.89853   1.000
    O69     O    0.67285   0.72745   0.95736   1.000
    O70     O    0.65576   0.75180   0.84708   1.000
    N71     N    0.25731   0.24508   0.39863   1.000
    O72     O    0.29492   0.25177   0.34722   1.000
    O73     O    0.23488   0.22745   0.45740   1.000
    N74     N    0.32896   0.25487   0.10147   1.000
    O75     O    0.34421   0.24818   0.15292   1.000
    O76     O    0.32712   0.27253   0.04263   1.000
    N77     N    0.55981   0.59766   0.10639   1.000
    O78     O    0.60038   0.62080   0.09347   1.000
    O79     O    0.51462   0.58439   0.13036   1.000
    N80     N    0.14439   0.28653   0.71345   1.000
    O81     O    0.12381   0.33234   0.75250   1.000
    O82     O    0.16643   0.24768   0.66742   1.000
    N83     N    0.08803   0.10720   0.59753   1.000
    O84     O    0.04239   0.09420   0.62065   1.000
    O85     O    0.12792   0.13118   0.58418   1.000
    N86     N    0.82894   0.25487   0.10147   1.000
    O87     O    0.84419   0.24818   0.15292   1.000
    O88     O    0.82710   0.27253   0.04264   1.000
    N89     N    0.19023   0.39301   0.90243   1.000
    O90     O    0.23544   0.36895   0.91577   1.000
    O91     O    0.14960   0.40598   0.87933   1.000
    N92     N    0.24268   0.75491   0.60137   1.000
    O93     O    0.20507   0.74822   0.65277   1.000
    O94     O    0.26511   0.77253   0.54261   1.000
    N95     N    0.05982   0.59766   0.10640   1.000
    O96     O    0.10040   0.62080   0.09350   1.000
    O97     O    0.01462   0.58439   0.13054   1.000
    N98     N    0.00769   0.89882   0.74494   1.000
    O99     O    0.98514   0.95768   0.72724   1.000
    O100    O    0.04533   0.84733   0.75165   1.000
    N101    N    0.69021   0.39301   0.90243   1.000
    O102    O    0.73542   0.36895   0.91577   1.000
    O103    O    0.64959   0.40598   0.87934   1.000
    N104    N    0.39441   0.21359   0.78642   1.000
    O105    O    0.41638   0.16774   0.74744   1.000
    O106    O    0.37390   0.25246   0.83248   1.000
    N107    N    0.94014   0.40232   0.89360   1.000
    O108    O    0.98534   0.41560   0.86946   1.000
    O109    O    0.89957   0.37918   0.90650   1.000
    N110    N    0.89440   0.21360   0.78647   1.000
    O111    O    0.91637   0.16775   0.74748   1.000
    O112    O    0.87388   0.25247   0.83251   1.000
    N113    N    0.91193   0.89278   0.40237   1.000
    O114    O    0.95758   0.90578   0.37930   1.000
    O115    O    0.87205   0.86880   0.41577   1.000
    N116    N    0.35558   0.71345   0.28655   1.000
    O117    O    0.37616   0.66764   0.24731   1.000
    O118    O    0.33355   0.75230   0.33258   1.000
    N119    N    0.44016   0.40232   0.89360   1.000
    O120    O    0.39958   0.37917   0.90650   1.000
    O121    O    0.48535   0.41559   0.86946   1.000
    N122    N    0.58802   0.10719   0.59753   1.000
    O123    O    0.62790   0.13118   0.58419   1.000
    O124    O    0.54238   0.09420   0.62065   1.000
    N125    N    0.66181   0.90242   0.39329   1.000
    O126    O    0.62197   0.91565   0.36925   1.000
    O127    O    0.70748   0.87922   0.40629   1.000
    N128    N    0.74266   0.75490   0.60137   1.000
    O129    O    0.70505   0.74821   0.65277   1.000
    O130    O    0.76509   0.77252   0.54260   1.000
    N131    N    0.57938   0.60115   0.75496   1.000
    O132    O    0.57730   0.54233   0.77273   1.000
    O133    O    0.59472   0.65262   0.74824   1.000
    N134    N    0.50767   0.89882   0.74494   1.000
    O135    O    0.54532   0.84732   0.75166   1.000
    O136    O    0.48513   0.95768   0.72724   1.000
    N137    N    0.99228   0.10116   0.25505   1.000
    O138    O    0.95464   0.15266   0.24834   1.000
    O139    O    0.01483   0.04229   0.27275   1.000
loop_
    _geom_bond_atom_site_label_1
    _geom_bond_atom_site_label_2
    _geom_bond_distance
    _geom_bond_site_symmetry_2
    _ccdc_geom_bond_type
    N20    O21       1.05164      .   S
    Zr18   O21       2.06464      .   S
    N20    O22       1.04834      .   S
    Zr12   O22       2.05506      .   S
    N23    O24       1.04836      .   S
    Zr7    O24       2.05534      .   S
    N23    O25       1.05243      .   S
    Zr17   O25       2.06532      .   S
    N26    O27       1.07295      .   S
    Zr8    O27       2.09793      .   S
    N26    O28       1.07193      .   S
    Zr2    O28       2.09651      .   S
    N29    O30       1.05201      .   S
    Zr14   O30       2.05488      .   S
    N29    O31       1.05795      .   S
    Zr3    O31       2.06751      .   S
    N32    O33       1.07290      .   S
    Zr15   O33       2.09749      .   S
    N32    O34       1.07198      .   S
    Zr5    O34       2.09669      .   S
    N35    O36       1.05783      .   S
    Zr14   O36       2.06743      .   S
    N35    O37       1.05185      .   S
    Zr2    O37       2.05471      .   S
    N38    O39       1.05600      .   S
    Zr4    O39       2.06100      .   S
    N38    O40       1.05213      .   S
    Zr8    O40       2.05483      .   S
    N41    O42       1.07203      .   S
    Zr13   O42       2.09671      .   S
    N41    O43       1.07287      .   S
    Zr7    O43       2.09755      .   S
    N44    O45       1.04865      .   S
    Zr4    O45       2.05730      .   S
    N44    O46       1.05163      .   S
    Zr16   O46       2.06459      .   S
    N47    O48       1.05153      .   S
    Zr18   O48       2.06458      .   S
    N47    O49       1.04858      .   S
    Zr8    O49       2.05557  1_554   S
    N50    O51       1.05777      .   S
    Zr6    O51       2.06734      .   S
    N50    O52       1.05185      .   S
    Zr10   O52       2.05454      .   S
    N53    O54       1.05777      .   S
    Zr7    O54       2.06734      .   S
    N53    O55       1.05191      .   S
    Zr11   O55       2.05477      .   S
    N56    O57       1.05163      .   S
    Zr16   O57       2.06431      .   S
    N56    O58       1.04847      .   S
    Zr3    O58       2.05537  1_565   S
    N59    O60       1.07302      .   S
    Zr9    O60       2.09795      .   S
    N59    O61       1.07185      .   S
    Zr3    O61       2.09635      .   S
    N62    O63       1.05151      .   S
    Zr17   O63       2.06429      .   S
    N62    O64       1.04823      .   S
    Zr5    O64       2.05479      .   S
    N65    O66       1.05797      .   S
    Zr5    O66       2.06768      .   S
    N65    O67       1.05210      .   S
    Zr9    O67       2.05479      .   S
    N68    O69       1.04861      .   S
    Zr9    O69       2.05558  1_554   S
    N68    O70       1.05149      .   S
    Zr19   O70       2.06456      .   S
    N71    O72       1.05227      .   S
    Zr16   O72       2.06563      .   S
    N71    O73       1.04832      .   S
    Zr6    O73       2.05532      .   S
    N74    O75       1.05150      .   S
    Zr16   O75       2.06452      .   S
    N74    O76       1.04867      .   S
    Zr0    O76       2.05548  1_556   S
    N77    O78       1.05770      .   S
    Zr9    O78       2.06747      .   S
    N77    O79       1.05183      .   S
    Zr4    O79       2.05387      .   S
    N80    O81       1.07184      .   S
    Zr12   O81       2.09688      .   S
    N80    O82       1.07291      .   S
    Zr6    O82       2.09755      .   S
    N83    O84       1.05808      .   S
    Zr11   O84       2.06781  1_655   S
    N83    O85       1.05203      .   S
    Zr6    O85       2.05493      .   S
    N86    O87       1.05153      .   S
    Zr17   O87       2.06461      .   S
    N86    O88       1.04860      .   S
    Zr1    O88       2.05559  1_556   S
    N89    O90       1.05212      .   S
    Zr0    O90       2.05485      .   S
    N89    O91       1.05793      .   S
    Zr12   O91       2.06758      .   S
    N92    O93       1.05222      .   S
    Zr18   O93       2.06553      .   S
    N92    O94       1.04835      .   S
    Zr14   O94       2.05533      .   S
    N95    O96       1.05776      .   S
    Zr8    O96       2.06740      .   S
    N95    O97       1.05214      .   S
    Zr5    O97       2.05494  1_655   S
    N98    O99       1.04848  1_455   S
    Zr11   O99       2.05538  1_545   S
    N98    O100      1.05170      .   S
    Zr18   O100      2.06439      .   S
    N101   O102      1.05215      .   S
    Zr1    O102      2.05486      .   S
    N101   O103      1.05784      .   S
    Zr13   O103      2.06747      .   S
    N104   O105      1.07159      .   S
    Zr10   O105      2.09629      .   S
    N104   O106      1.07344      .   S
    Zr0    O106      2.09838      .   S
    N107   O108      1.05214      .   S
    Zr12   O108      2.05495  1_455   S
    N107   O109      1.05774      .   S
    Zr1    O109      2.06738      .   S
    N110   O111      1.07187      .   S
    Zr11   O111      2.09645      .   S
    N110   O112      1.07307      .   S
    Zr1    O112      2.09800      .   S
    N113   O114      1.05804      .   S
    Zr2    O114      2.06769  1_455   S
    N113   O115      1.05193      .   S
    Zr15   O115      2.05473      .   S
    N116   O117      1.07403      .   S
    Zr4    O117      2.10218      .   S
    N116   O118      1.07293      .   S
    Zr14   O118      2.09755      .   S
    N119   O120      1.05772      .   S
    Zr0    O120      2.06733      .   S
    N119   O121      1.05206      .   S
    Zr13   O121      2.05466      .   S
    N122   O123      1.05204      .   S
    Zr7    O123      2.05495      .   S
    N122   O124      1.05795      .   S
    Zr10   O124      2.06743      .   S
    N125   O126      1.05187      .   S
    Zr3    O126      2.05472      .   S
    N125   O127      1.05784      .   S
    Zr15   O127      2.06744      .   S
    N128   O129      1.05221      .   S
    Zr19   O129      2.06548      .   S
    N128   O130      1.04834      .   S
    Zr15   O130      2.05533      .   S
    N131   O132      1.04842      .   S
    Zr13   O132      2.05523      .   S
    N131   O133      1.05176      .   S
    Zr19   O133      2.06482      .   S
    N134   O135      1.05168      .   S
    Zr19   O135      2.06438      .   S
    N134   O136      1.04847      .   S
    Zr10   O136      2.05544  1_545   S
    N137   O138      1.05167      .   S
    Zr17   O138      2.06436      .   S
    N137   O139      1.04854  1_655   S
    Zr2    O139      2.05547  1_565   S
