# CIF file generated by openbabel 2.4.90, see http://openbabel.sf.net
data_I
_chemical_name_common ''
_cell_length_a 13.958
_cell_length_b 14.283
_cell_length_c 14.292
_cell_angle_alpha 95.047
_cell_angle_beta 106.523
_cell_angle_gamma 107.078
_space_group_name_H-M_alt 'P 1'
_space_group_name_Hall 'P 1'
loop_
    _symmetry_equiv_pos_as_xyz
    x,y,z
loop_
    _atom_site_label
    _atom_site_type_symbol
    _atom_site_fract_x
    _atom_site_fract_y
    _atom_site_fract_z
    _atom_site_occupancy
    Zn0     Zn   0.36074   0.16198   0.87235   1.000
    Zn1     Zn   0.85933   0.87276   0.16077   1.000
    Zn2     Zn   0.63926   0.83802   0.12765   1.000
    Zn3     Zn   0.14067   0.12723   0.83923   1.000
loop_
    _geom_bond_atom_site_label_1
    _geom_bond_atom_site_label_2
    _geom_bond_distance
    _geom_bond_site_symmetry_2
    _ccdc_geom_bond_type
    Zn3    Zn0       2.85348      .   S
    Zn1    Zn2       2.85347      .   S
