# CIF file generated by openbabel 2.4.90, see http://openbabel.sf.net
data_I
_chemical_name_common ''
_cell_length_a 13.958
_cell_length_b 14.283
_cell_length_c 14.292
_cell_angle_alpha 95.047
_cell_angle_beta 106.523
_cell_angle_gamma 107.078
_space_group_name_H-M_alt 'P 1'
_space_group_name_Hall 'P 1'
loop_
    _symmetry_equiv_pos_as_xyz
    x,y,z
loop_
    _atom_site_label
    _atom_site_type_symbol
    _atom_site_fract_x
    _atom_site_fract_y
    _atom_site_fract_z
    _atom_site_occupancy
    Zr0     Zr   0.14067   0.12723   0.83923   1.000
    Zr1     Zr   0.36074   0.16198   0.87235   1.000
    Zr2     Zr   0.85933   0.87276   0.16077   1.000
    Zr3     Zr   0.63926   0.83802   0.12765   1.000
    O4      O    0.25070   0.14461   0.85579   1.000
    O5      O    0.74930   0.85539   0.14421   1.000
    N6      N    0.25649   0.64536   0.86516   1.000
    O7      O    0.21390   0.42452   0.85426   1.000
    O8      O    0.19541   0.84863   0.85218   1.000
    O9      O    0.29347   0.86492   0.86262   1.000
    O10     O    0.31352   0.44105   0.87398   1.000
    N11     N    0.25016   0.85700   0.14280   1.000
    O12     O    0.40745   0.84727   0.13422   1.000
    O13     O    0.09204   0.86589   0.15209   1.000
    N14     N    0.75511   0.86435   0.64493   1.000
    O15     O    0.71221   0.85276   0.42433   1.000
    O16     O    0.69445   0.85154   0.84892   1.000
    O17     O    0.81183   0.87356   0.44005   1.000
    O18     O    0.79255   0.86294   0.86429   1.000
    N19     N    0.24489   0.13564   0.35507   1.000
    O20     O    0.30555   0.14845   0.15108   1.000
    O21     O    0.20745   0.13705   0.13571   1.000
    O22     O    0.28779   0.14724   0.57567   1.000
    O23     O    0.18817   0.12643   0.55995   1.000
    N24     N    0.75060   0.14300   0.85719   1.000
    O25     O    0.90834   0.13410   0.84791   1.000
    O26     O    0.59293   0.15272   0.86577   1.000
    N27     N    0.74351   0.35463   0.13484   1.000
    O28     O    0.78610   0.57547   0.14574   1.000
    O29     O    0.68648   0.55895   0.12602   1.000
    O30     O    0.70653   0.13507   0.13737   1.000
    O31     O    0.80459   0.15136   0.14782   1.000
loop_
    _geom_bond_atom_site_label_1
    _geom_bond_atom_site_label_2
    _geom_bond_distance
    _geom_bond_site_symmetry_2
    _ccdc_geom_bond_type
    Zr0    O4        1.42674      .   S
    Zr1    O4        1.42674      .   S
    Zr2    O5        1.42674      .   S
    Zr3    O5        1.42674      .   S
    N6     O7        3.01437      .   S
    Zr0    O7        4.03564      .   S
    N6     O8        3.26332      .   S
    Zr0    O8        4.27640  1_545   S
    N6     O9        3.03017      .   S
    Zr1    O9        4.04785  1_545   S
    N6     O10       3.24613      .   S
    Zr1    O10       4.22589      .   S
    N11    O12       2.27686      .   S
    Zr3    O12       3.30409      .   S
    N11    O13       2.28753      .   S
    Zr2    O13       3.31507  1_655   S
    N14    O15       3.01699      .   S
    Zr3    O15       4.03995      .   S
    N14    O16       3.26448      .   S
    Zr3    O16       4.27709  1_554   S
    N14    O17       3.24709      .   S
    Zr2    O17       4.22764      .   S
    N14    O18       3.03112      .   S
    Zr2    O18       4.05158  1_554   S
    N19    O20       3.26448      .   S
    Zr1    O20       4.27709  1_556   S
    N19    O21       3.03112      .   S
    Zr0    O21       4.05157  1_556   S
    N19    O22       3.01700      .   S
    Zr1    O22       4.03994      .   S
    N19    O23       3.24710      .   S
    Zr0    O23       4.22765      .   S
    N24    O25       2.28223      .   S
    Zr0    O25       3.30975  1_455   S
    N24    O26       2.28216      .   S
    Zr1    O26       3.30941      .   S
    N27    O28       3.01436      .   S
    Zr2    O28       4.03562      .   S
    N27    O29       3.24616      .   S
    Zr3    O29       4.22595      .   S
    N27    O30       3.03013      .   S
    Zr3    O30       4.04780  1_565   S
    N27    O31       3.26333      .   S
    Zr2    O31       4.27643  1_565   S
