# CIF file generated by openbabel 2.4.90, see http://openbabel.sf.net
data_I
_chemical_name_common ''
_cell_length_a 13.958
_cell_length_b 14.283
_cell_length_c 14.292
_cell_angle_alpha 95.047
_cell_angle_beta 106.523
_cell_angle_gamma 107.078
_space_group_name_H-M_alt 'P 1'
_space_group_name_Hall 'P 1'
loop_
    _symmetry_equiv_pos_as_xyz
    x,y,z
loop_
    _atom_site_label
    _atom_site_type_symbol
    _atom_site_fract_x
    _atom_site_fract_y
    _atom_site_fract_z
    _atom_site_occupancy
    C0      C    0.14067   0.12723   0.83923   1.000
    C1      C    0.36074   0.16198   0.87235   1.000
    C2      C    0.85933   0.87276   0.16077   1.000
    C3      C    0.63926   0.83802   0.12765   1.000
    C4      C    0.45277   0.68841   0.91012   1.000
    C5      C    0.48394   0.51612   0.91473   1.000
    C6      C    0.03418   0.77697   0.84003   1.000
    C7      C    0.07288   0.60831   0.85817   1.000
    C8      C    0.78396   0.18640   0.71007   1.000
    C9      C    0.95548   0.16970   0.70287   1.000
    C10     C    0.01521   0.07762   0.97373   1.000
    C11     C    0.84532   0.08484   0.99089   1.000
    C12     C    0.04898   0.09026   0.31434   1.000
    C13     C    0.01837   0.08593   0.48706   1.000
    C14     C    0.46642   0.16137   0.22080   1.000
    C15     C    0.42869   0.14450   0.39025   1.000
    C16     C    0.71910   0.29016   0.81254   1.000
    C17     C    0.54756   0.29793   0.82888   1.000
    C18     C    0.48420   0.02727   0.92288   1.000
    C19     C    0.65399   0.00959   0.91608   1.000
    C20     C    0.54723   0.31158   0.08987   1.000
    C21     C    0.51606   0.48387   0.08526   1.000
    C22     C    0.96582   0.22302   0.15997   1.000
    C23     C    0.92713   0.39169   0.14183   1.000
    C24     C    0.21605   0.81361   0.28993   1.000
    C25     C    0.04452   0.83030   0.29713   1.000
    C26     C    0.00000   0.92236   0.02626   1.000
    C27     C    0.15468   0.91515   0.00910   1.000
    C28     C    0.95102   0.90973   0.68566   1.000
    C29     C    0.98163   0.91406   0.51293   1.000
    C30     C    0.53358   0.83862   0.77919   1.000
    C31     C    0.57131   0.85549   0.60975   1.000
    C32     C    0.28090   0.70984   0.18746   1.000
    C33     C    0.45244   0.70206   0.17112   1.000
    C34     C    0.51580   0.97271   0.07710   1.000
    C35     C    0.34600   0.99040   0.08391   1.000
    C36     C    0.20826   0.94979   0.84224   1.000
    C37     C    0.29794   0.33778   0.87194   1.000
    C38     C    0.31369   0.44501   0.87580   1.000
    C39     C    0.28221   0.60772   0.86957   1.000
    C40     C    0.19635   0.84391   0.84278   1.000
    C41     C    0.38907   0.61719   0.89360   1.000
    C42     C    0.40638   0.52492   0.89679   1.000
    C43     C    0.23387   0.68442   0.85938   1.000
    C44     C    0.10946   0.76682   0.84429   1.000
    C45     C    0.13042   0.67691   0.85385   1.000
    C46     C    0.83298   0.16231   0.77051   1.000
    C47     C    0.92781   0.15299   0.76552   1.000
    C48     C    0.96032   0.09946   0.91642   1.000
    C49     C    0.86570   0.10469   0.92560   1.000
    C50     C    0.80042   0.13842   0.85232   1.000
    C51     C    0.29155   0.15673   0.04963   1.000
    C52     C    0.20462   0.12978   0.66341   1.000
    C53     C    0.18861   0.12568   0.55630   1.000
    C54     C    0.21954   0.13162   0.39314   1.000
    C55     C    0.30409   0.15703   0.15552   1.000
    C56     C    0.11280   0.10714   0.38487   1.000
    C57     C    0.09580   0.10411   0.47739   1.000
    C58     C    0.26750   0.14163   0.31579   1.000
    C59     C    0.39129   0.15673   0.23179   1.000
    C60     C    0.37085   0.14784   0.32214   1.000
    C61     C    0.66926   0.22987   0.83701   1.000
    C62     C    0.57443   0.23519   0.84612   1.000
    C63     C    0.53990   0.08443   0.90073   1.000
    C64     C    0.63444   0.07494   0.89573   1.000
    C65     C    0.70078   0.14798   0.86159   1.000
    C66     C    0.79174   0.05020   0.15775   1.000
    C67     C    0.70205   0.66221   0.12806   1.000
    C68     C    0.68630   0.55498   0.12419   1.000
    C69     C    0.71779   0.39227   0.13042   1.000
    C70     C    0.80365   0.15608   0.15722   1.000
    C71     C    0.61093   0.38280   0.10639   1.000
    C72     C    0.59362   0.47507   0.10320   1.000
    C73     C    0.76613   0.31558   0.14061   1.000
    C74     C    0.89055   0.23318   0.15571   1.000
    C75     C    0.86958   0.32308   0.14614   1.000
    C76     C    0.16702   0.83769   0.22948   1.000
    C77     C    0.07219   0.84700   0.23448   1.000
    C78     C    0.03968   0.90052   0.08357   1.000
    C79     C    0.13430   0.89530   0.07440   1.000
    C80     C    0.19959   0.86158   0.14767   1.000
    C81     C    0.70845   0.84326   0.95037   1.000
    C82     C    0.79538   0.87021   0.33659   1.000
    C83     C    0.81139   0.87432   0.44370   1.000
    C84     C    0.78046   0.86838   0.60686   1.000
    C85     C    0.69591   0.84296   0.84448   1.000
    C86     C    0.88720   0.89286   0.61512   1.000
    C87     C    0.90420   0.89589   0.52261   1.000
    C88     C    0.73250   0.85836   0.68421   1.000
    C89     C    0.60871   0.84326   0.76821   1.000
    C90     C    0.62916   0.85215   0.67786   1.000
    C91     C    0.33074   0.77012   0.16300   1.000
    C92     C    0.42557   0.76480   0.15388   1.000
    C93     C    0.46010   0.91556   0.09926   1.000
    C94     C    0.36556   0.92505   0.10426   1.000
    C95     C    0.29923   0.85201   0.13841   1.000
    C96     C    0.30412   0.80422   0.85124   1.000
    C97     C    0.20392   0.48356   0.85086   1.000
    C98     C    0.19669   0.14825   0.19650   1.000
    C99     C    0.29811   0.15103   0.51648   1.000
    C100    C    0.69588   0.19577   0.14875   1.000
    C101    C    0.79608   0.51643   0.14913   1.000
    C102    C    0.80331   0.85174   0.80349   1.000
    C103    C    0.70188   0.84897   0.48352   1.000
    C104    C    0.99149   0.12319   0.83802   1.000
    C105    C    0.50976   0.16291   0.87636   1.000
    C106    C    0.00852   0.87681   0.16198   1.000
    C107    C    0.49024   0.83707   0.12362   1.000
    C108    C    0.12797   0.97657   0.83917   1.000
    C109    C    0.38035   0.31149   0.89324   1.000
    C110    C    0.30016   0.00698   0.84782   1.000
    C111    C    0.20196   0.28014   0.84750   1.000
    C112    C    0.37166   0.16056   0.02182   1.000
    C113    C    0.12224   0.10720   0.69044   1.000
    C114    C    0.19935   0.14968   0.99346   1.000
    C115    C    0.30065   0.15569   0.72019   1.000
    C116    C    0.87202   0.02342   0.16082   1.000
    C117    C    0.61965   0.68851   0.10676   1.000
    C118    C    0.69984   0.99301   0.15217   1.000
    C119    C    0.79804   0.71985   0.15250   1.000
    C120    C    0.62833   0.83942   0.97817   1.000
    C121    C    0.87776   0.89279   0.30955   1.000
    C122    C    0.80065   0.85031   0.00653   1.000
    C123    C    0.69934   0.84431   0.27981   1.000
    O124    O    0.82999   0.86153   0.08365   1.000
    O125    O    0.75455   0.84679   0.97845   1.000
    O126    O    0.14449   0.90522   0.04175   1.000
    O127    O    0.33161   0.15864   0.03573   1.000
    O128    O    0.36620   0.16127   0.94709   1.000
    O129    O    0.01984   0.91144   0.05492   1.000
    O130    O    0.29782   0.15688   0.10257   1.000
    O131    O    0.24545   0.15320   0.02155   1.000
    O132    O    0.08699   0.89791   0.07898   1.000
    O133    O    0.16694   0.87844   0.11103   1.000
    O134    O    0.48795   0.94414   0.08818   1.000
    O135    O    0.02410   0.88866   0.12278   1.000
    O136    O    0.35578   0.95773   0.09408   1.000
    O137    O    0.55484   0.47947   0.09423   1.000
    O138    O    0.57908   0.34719   0.09813   1.000
    O139    O    0.41283   0.92031   0.10176   1.000
    O140    O    0.47517   0.87632   0.11144   1.000
    O141    O    0.60228   0.42893   0.10480   1.000
    O142    O    0.63996   0.51502   0.11370   1.000
    O143    O    0.33239   0.88853   0.12134   1.000
    O144    O    0.66436   0.38753   0.11841   1.000
    O145    O    0.62946   0.76326   0.11720   1.000
    O146    O    0.66085   0.67536   0.11741   1.000
    O147    O    0.56475   0.83755   0.12564   1.000
    O148    O    0.45791   0.80094   0.13875   1.000
    O149    O    0.69418   0.60859   0.12613   1.000
    O150    O    0.74119   0.53570   0.13666   1.000
    O151    O    0.66955   0.91552   0.13991   1.000
    O152    O    0.66930   0.84117   0.20373   1.000
    O153    O    0.63380   0.83872   0.05291   1.000
    O154    O    0.75005   0.69103   0.14028   1.000
    O155    O    0.74196   0.35392   0.13552   1.000
    O156    O    0.75693   0.45435   0.13978   1.000
    O157    O    0.24941   0.85680   0.14304   1.000
    O158    O    0.31498   0.81107   0.15070   1.000
    O159    O    0.81786   0.31933   0.14338   1.000
    O160    O    0.73101   0.25567   0.14468   1.000
    O161    O    0.89836   0.35738   0.14399   1.000
    O162    O    0.88006   0.27813   0.15093   1.000
    O163    O    0.18330   0.84963   0.18858   1.000
    O164    O    0.74977   0.17592   0.15298   1.000
    O165    O    0.74579   0.02161   0.15496   1.000
    O166    O    0.82868   0.79630   0.15663   1.000
    O167    O    0.37816   0.76746   0.15844   1.000
    O168    O    0.43901   0.73343   0.16250   1.000
    O169    O    0.25039   0.15264   0.17601   1.000
    O170    O    0.34769   0.15688   0.19365   1.000
    O171    O    0.84710   0.19463   0.15646   1.000
    O172    O    0.92819   0.22810   0.15784   1.000
    O173    O    0.79769   0.10314   0.15749   1.000
    O174    O    0.83188   0.03681   0.15929   1.000
    O175    O    0.86568   0.94809   0.16080   1.000
    O176    O    0.93392   0.87478   0.16138   1.000
    O177    O    0.86854   0.88277   0.23516   1.000
    O178    O    0.04035   0.86190   0.19823   1.000
    O179    O    0.30582   0.73998   0.17523   1.000
    O180    O    0.23210   0.14494   0.25615   1.000
    O181    O    0.42885   0.15905   0.22629   1.000
    O182    O    0.11960   0.84234   0.23198   1.000
    O183    O    0.19153   0.82565   0.25971   1.000
    O184    O    0.38107   0.15228   0.27696   1.000
    O185    O    0.05836   0.83865   0.26581   1.000
    O186    O    0.74736   0.85726   0.30820   1.000
    O187    O    0.83657   0.88150   0.32307   1.000
    O188    O    0.08089   0.09870   0.34961   1.000
    O189    O    0.31917   0.14474   0.31896   1.000
    O190    O    0.24352   0.13662   0.35446   1.000
    O191    O    0.39977   0.14617   0.35619   1.000
    O192    O    0.80339   0.87226   0.39014   1.000
    O193    O    0.16617   0.11938   0.38900   1.000
    O194    O    0.10430   0.10562   0.43113   1.000
    O195    O    0.25883   0.14132   0.45481   1.000
    O196    O    0.75664   0.86164   0.46361   1.000
    O197    O    0.85779   0.88510   0.48315   1.000
    O198    O    0.05709   0.09502   0.48222   1.000
    O199    O    0.14221   0.11489   0.51684   1.000
    O200    O    0.74117   0.85867   0.54519   1.000
    O201    O    0.94291   0.90497   0.51777   1.000
    O202    O    0.24336   0.13835   0.53639   1.000
    O203    O    0.89570   0.89437   0.56887   1.000
    O204    O    0.19661   0.12773   0.60985   1.000
    O205    O    0.83383   0.88062   0.61099   1.000
    O206    O    0.75648   0.86337   0.64553   1.000
    O207    O    0.60023   0.85382   0.64380   1.000
    O208    O    0.91911   0.90129   0.65039   1.000
    O209    O    0.16343   0.11849   0.67692   1.000
    O210    O    0.25264   0.14274   0.69180   1.000
    O211    O    0.68083   0.85526   0.68103   1.000
    O212    O    0.61893   0.84771   0.72303   1.000
    O213    O    0.76790   0.85505   0.74385   1.000
    O214    O    0.13145   0.11721   0.76483   1.000
    O215    O    0.94165   0.16135   0.73419   1.000
    O216    O    0.80847   0.17435   0.74029   1.000
    O217    O    0.33070   0.15883   0.79627   1.000
    O218    O    0.88040   0.15765   0.76802   1.000
    O219    O    0.95965   0.13809   0.80177   1.000
    O220    O    0.57115   0.84094   0.77370   1.000
    O221    O    0.65231   0.84311   0.80634   1.000
    O222    O    0.81670   0.15036   0.81142   1.000
    O223    O    0.74961   0.84735   0.82398   1.000
    O224    O    0.69418   0.26001   0.82477   1.000
    O225    O    0.56100   0.26656   0.83750   1.000
    O226    O    0.62184   0.23253   0.84156   1.000
    O227    O    0.68502   0.18893   0.84930   1.000
    O228    O    0.06608   0.12521   0.83862   1.000
    O229    O    0.97590   0.11133   0.87722   1.000
    O230    O    0.13432   0.05190   0.83920   1.000
    O231    O    0.16812   0.96318   0.84070   1.000
    O232    O    0.17131   0.20368   0.84336   1.000
    O233    O    0.17001   0.13846   0.91635   1.000
    O234    O    0.07182   0.77189   0.84216   1.000
    O235    O    0.20231   0.89685   0.84251   1.000
    O236    O    0.25421   0.97839   0.84503   1.000
    O237    O    0.15290   0.80536   0.84353   1.000
    O238    O    0.25023   0.82407   0.84701   1.000
    O239    O    0.11994   0.72186   0.84907   1.000
    O240    O    0.70218   0.84311   0.89742   1.000
    O241    O    0.54209   0.19905   0.86124   1.000
    O242    O    0.24995   0.30896   0.85972   1.000
    O243    O    0.33045   0.08448   0.86008   1.000
    O244    O    0.24306   0.54564   0.86022   1.000
    O245    O    0.25880   0.46429   0.86333   1.000
    O246    O    0.26899   0.74432   0.85531   1.000
    O247    O    0.75060   0.14320   0.85696   1.000
    O248    O    0.83306   0.12156   0.88896   1.000
    O249    O    0.10165   0.64261   0.85601   1.000
    O250    O    0.18215   0.68066   0.85662   1.000
    O251    O    0.25804   0.64607   0.86447   1.000
    O252    O    0.66761   0.11146   0.87866   1.000
    O253    O    0.33564   0.61246   0.88159   1.000
    O254    O    0.30582   0.39140   0.87387   1.000
    O255    O    0.33914   0.32464   0.88259   1.000
    O256    O    0.43525   0.16245   0.87435   1.000
    O257    O    0.37054   0.23673   0.88279   1.000
    O258    O    0.36003   0.48497   0.88630   1.000
    O259    O    0.52483   0.12367   0.88855   1.000
    O260    O    0.39772   0.57106   0.89520   1.000
    O261    O    0.42092   0.65280   0.90186   1.000
    O262    O    0.58717   0.07968   0.89823   1.000
    O263    O    0.64422   0.04226   0.90590   1.000
    O264    O    0.44516   0.52052   0.90576   1.000
    O265    O    0.51205   0.05585   0.91181   1.000
    O266    O    0.91301   0.10208   0.92101   1.000
    O267    O    0.98776   0.08854   0.94507   1.000
    O268    O    0.85551   0.09477   0.95825   1.000
    O269    O    0.66839   0.84134   0.96427   1.000
    O270    O    0.25070   0.14461   0.85579   1.000
    O271    O    0.74930   0.85539   0.14421   1.000
loop_
    _geom_bond_atom_site_label_1
    _geom_bond_atom_site_label_2
    _geom_bond_distance
    _geom_bond_site_symmetry_2
    _ccdc_geom_bond_type
    C122   O124      1.04013      .   S
    C2     O124      1.04013      .   S
    C122   O125      0.63891  1_554   S
    C81    O125      0.63891      .   S
    C27    O126      0.54366      .   S
    C79    O126      0.54366      .   S
    C112   O127      0.63872      .   S
    C51    O127      0.63872      .   S
    C112   O128      1.05022  1_554   S
    C1     O128      1.05022      .   S
    C26    O129      0.49074      .   S
    C78    O129      0.49074      .   S
    C51    O130      0.73633      .   S
    C55    O130      0.73633      .   S
    C51    O131      0.63892      .   S
    C114   O131      0.63892  1_556   S
    C79    O132      0.69317      .   S
    C78    O132      0.69317      .   S
    C79    O133      0.70049      .   S
    C80    O133      0.70049      .   S
    C34    O134      0.54399      .   S
    C93    O134      0.54399      .   S
    C78    O135      0.67402      .   S
    C106   O135      0.67402      .   S
    C35    O136      0.54372      .   S
    C94    O136      0.54372      .   S
    C21    O137      0.54342      .   S
    C72    O137      0.54342      .   S
    C20    O138      0.54498      .   S
    C71    O138      0.54498      .   S
    C93    O139      0.69318      .   S
    C94    O139      0.69318      .   S
    C93    O140      0.67404      .   S
    C107   O140      0.67404      .   S
    C72    O141      0.70511      .   S
    C71    O141      0.70511      .   S
    C72    O142      0.69246      .   S
    C68    O142      0.69246      .   S
    C94    O143      0.70052      .   S
    C95    O143      0.70052      .   S
    C71    O144      0.69689      .   S
    C69    O144      0.69689      .   S
    C117   O145      1.02743      .   S
    C3     O145      1.02743      .   S
    C117   O146      0.63861      .   S
    C67    O146      0.63861      .   S
    C107   O147      1.03022      .   S
    C3     O147      1.03022      .   S
    C107   O148      0.67464      .   S
    C92    O148      0.67464      .   S
    C68    O149      0.73784      .   S
    C67    O149      0.73784      .   S
    C68    O150      0.86565      .   S
    C101   O150      0.86565      .   S
    C3     O151      1.04093      .   S
    C118   O151      1.04093      .   S
    C3     O152      1.03977      .   S
    C123   O152      1.03977      .   S
    C3     O153      1.05022      .   S
    C120   O153      1.05022  1_556   S
    C67    O154      0.63838      .   S
    C119   O154      0.63838      .   S
    C69    O155      0.72160      .   S
    C73    O155      0.72160      .   S
    C69    O156      0.86931      .   S
    C101   O156      0.86931      .   S
    C95    O157      0.73885      .   S
    C80    O157      0.73885      .   S
    C95    O158      0.70208      .   S
    C91    O158      0.70208      .   S
    C73    O159      0.69742      .   S
    C75    O159      0.69742      .   S
    C73    O160      0.86855      .   S
    C100   O160      0.86855      .   S
    C23    O161      0.54443      .   S
    C75    O161      0.54443      .   S
    C75    O162      0.70393      .   S
    C74    O162      0.70393      .   S
    C80    O163      0.70207      .   S
    C76    O163      0.70207      .   S
    C100   O164      0.86720      .   S
    C70    O164      0.86720      .   S
    C118   O165      0.63911  1_565   S
    C66    O165      0.63911      .   S
    C119   O166      1.03862      .   S
    C2     O166      1.03862      .   S
    C92    O167      0.69468      .   S
    C91    O167      0.69468      .   S
    C92    O168      0.54496      .   S
    C33    O168      0.54496      .   S
    C55    O169      0.86716      .   S
    C98    O169      0.86716      .   S
    C55    O170      0.69262      .   S
    C59    O170      0.69262      .   S
    C74    O171      0.69260      .   S
    C70    O171      0.69260      .   S
    C74    O172      0.54393      .   S
    C22    O172      0.54393      .   S
    C70    O173      0.73651      .   S
    C66    O173      0.73651      .   S
    C66    O174      0.63850      .   S
    C116   O174      0.63850      .   S
    C2     O175      1.05335      .   S
    C116   O175      1.05335  1_545   S
    C2     O176      1.03057      .   S
    C106   O176      1.03057  1_455   S
    C2     O177      1.02571      .   S
    C121   O177      1.02571      .   S
    C106   O178      0.67465      .   S
    C77    O178      0.67465      .   S
    C91    O179      0.54476      .   S
    C32    O179      0.54476      .   S
    C98    O180      0.86850      .   S
    C58    O180      0.86850      .   S
    C14    O181      0.54392      .   S
    C59    O181      0.54392      .   S
    C76    O182      0.69469      .   S
    C77    O182      0.69469      .   S
    C76    O183      0.54477      .   S
    C24    O183      0.54477      .   S
    C59    O184      0.70391      .   S
    C60    O184      0.70391      .   S
    C77    O185      0.54497      .   S
    C25    O185      0.54497      .   S
    C123   O186      0.63823      .   S
    C82    O186      0.63823      .   S
    C121   O187      0.63880      .   S
    C82    O187      0.63880      .   S
    C12    O188      0.54500      .   S
    C56    O188      0.54500      .   S
    C58    O189      0.69746      .   S
    C60    O189      0.69746      .   S
    C58    O190      0.72163      .   S
    C54    O190      0.72163      .   S
    C60    O191      0.54443      .   S
    C15    O191      0.54443      .   S
    C82    O192      0.73803      .   S
    C83    O192      0.73803      .   S
    C56    O193      0.69694      .   S
    C54    O193      0.69694      .   S
    C56    O194      0.70512      .   S
    C57    O194      0.70512      .   S
    C54    O195      0.86932      .   S
    C99    O195      0.86932      .   S
    C83    O196      0.86563      .   S
    C103   O196      0.86563      .   S
    C83    O197      0.69252      .   S
    C87    O197      0.69252      .   S
    C57    O198      0.54342      .   S
    C13    O198      0.54342      .   S
    C57    O199      0.69252      .   S
    C53    O199      0.69252      .   S
    C103   O200      0.86932      .   S
    C84    O200      0.86932      .   S
    C29    O201      0.54343      .   S
    C87    O201      0.54343      .   S
    C99    O202      0.86563      .   S
    C53    O202      0.86563      .   S
    C87    O203      0.70512      .   S
    C86    O203      0.70512      .   S
    C53    O204      0.73803      .   S
    C52    O204      0.73803      .   S
    C84    O205      0.69694      .   S
    C86    O205      0.69694      .   S
    C84    O206      0.72162      .   S
    C88    O206      0.72162      .   S
    C31    O207      0.54443      .   S
    C90    O207      0.54443      .   S
    C86    O208      0.54500      .   S
    C28    O208      0.54500      .   S
    C52    O209      0.63880      .   S
    C113   O209      0.63880      .   S
    C52    O210      0.63823      .   S
    C115   O210      0.63823      .   S
    C90    O211      0.69745      .   S
    C88    O211      0.69745      .   S
    C90    O212      0.70392      .   S
    C89    O212      0.70392      .   S
    C88    O213      0.86850      .   S
    C102   O213      0.86850      .   S
    C113   O214      1.02572      .   S
    C0     O214      1.02572      .   S
    C9     O215      0.54497      .   S
    C47    O215      0.54497      .   S
    C8     O216      0.54476      .   S
    C46    O216      0.54476      .   S
    C115   O217      1.03976      .   S
    C1     O217      1.03976      .   S
    C47    O218      0.69469      .   S
    C46    O218      0.69469      .   S
    C47    O219      0.67465      .   S
    C104   O219      0.67465      .   S
    C89    O220      0.54391      .   S
    C30    O220      0.54391      .   S
    C89    O221      0.69262      .   S
    C85    O221      0.69262      .   S
    C46    O222      0.70207      .   S
    C50    O222      0.70207      .   S
    C102   O223      0.86715      .   S
    C85    O223      0.86715      .   S
    C16    O224      0.54476      .   S
    C61    O224      0.54476      .   S
    C17    O225      0.54496      .   S
    C62    O225      0.54496      .   S
    C61    O226      0.69468      .   S
    C62    O226      0.69468      .   S
    C61    O227      0.70208      .   S
    C65    O227      0.70208      .   S
    C104   O228      1.03056  1_655   S
    C0     O228      1.03056      .   S
    C104   O229      0.67402      .   S
    C48    O229      0.67402      .   S
    C108   O230      1.05333  1_565   S
    C0     O230      1.05333      .   S
    C108   O231      0.63850      .   S
    C36    O231      0.63850      .   S
    C0     O232      1.03863      .   S
    C111   O232      1.03863      .   S
    C0     O233      1.04012      .   S
    C114   O233      1.04012      .   S
    C6     O234      0.54393      .   S
    C44    O234      0.54393      .   S
    C36    O235      0.73651      .   S
    C40    O235      0.73651      .   S
    C36    O236      0.63911      .   S
    C110   O236      0.63911  1_545   S
    C40    O237      0.69260      .   S
    C44    O237      0.69260      .   S
    C40    O238      0.86720      .   S
    C96    O238      0.86720      .   S
    C44    O239      0.70393      .   S
    C45    O239      0.70393      .   S
    C85    O240      0.73633      .   S
    C81    O240      0.73633      .   S
    C62    O241      0.67463      .   S
    C105   O241      0.67463      .   S
    C111   O242      0.63838      .   S
    C37    O242      0.63838      .   S
    C110   O243      1.04095      .   S
    C1     O243      1.04095      .   S
    C97    O244      0.86931      .   S
    C39    O244      0.86931      .   S
    C97    O245      0.86564      .   S
    C38    O245      0.86564      .   S
    C96    O246      0.86855      .   S
    C43    O246      0.86855      .   S
    C50    O247      0.73885      .   S
    C65    O247      0.73885      .   S
    C50    O248      0.70050      .   S
    C49    O248      0.70050      .   S
    C45    O249      0.54443      .   S
    C7     O249      0.54443      .   S
    C45    O250      0.69742      .   S
    C43    O250      0.69742      .   S
    C43    O251      0.72160      .   S
    C39    O251      0.72160      .   S
    C65    O252      0.70053      .   S
    C64    O252      0.70053      .   S
    C39    O253      0.69688      .   S
    C41    O253      0.69688      .   S
    C37    O254      0.73784      .   S
    C38    O254      0.73784      .   S
    C37    O255      0.63862      .   S
    C109   O255      0.63862      .   S
    C1     O256      1.03023      .   S
    C105   O256      1.03023      .   S
    C1     O257      1.02741      .   S
    C109   O257      1.02741      .   S
    C38    O258      0.69245      .   S
    C42    O258      0.69245      .   S
    C105   O259      0.67405      .   S
    C63    O259      0.67405      .   S
    C41    O260      0.70512      .   S
    C42    O260      0.70512      .   S
    C41    O261      0.54498      .   S
    C4     O261      0.54498      .   S
    C64    O262      0.69317      .   S
    C63    O262      0.69317      .   S
    C64    O263      0.54371      .   S
    C19    O263      0.54371      .   S
    C42    O264      0.54342      .   S
    C5     O264      0.54342      .   S
    C63    O265      0.54398      .   S
    C18    O265      0.54398      .   S
    C48    O266      0.69316      .   S
    C49    O266      0.69316      .   S
    C48    O267      0.54398      .   S
    C10    O267      0.54398  1_455   S
    C49    O268      0.54367      .   S
    C11    O268      0.54367      .   S
    C81    O269      0.63872      .   S
    C120   O269      0.63872      .   S
    C0     O270      1.42674      .   S
    C1     O270      1.42674      .   S
    C2     O271      1.42674      .   S
    C3     O271      1.42674      .   S
