# CIF file generated by openbabel 2.4.90, see http://openbabel.sf.net
data_I
_chemical_name_common ''
_cell_length_a 13.928
_cell_length_b 19.233
_cell_length_c 17.934
_cell_angle_alpha 102.2
_cell_angle_beta 96.875
_cell_angle_gamma 105.929
_space_group_name_H-M_alt 'P 1'
_space_group_name_Hall 'P 1'
loop_
    _symmetry_equiv_pos_as_xyz
    x,y,z
loop_
    _atom_site_label
    _atom_site_type_symbol
    _atom_site_fract_x
    _atom_site_fract_y
    _atom_site_fract_z
    _atom_site_occupancy
    Zn0     Zn   0.03693   0.77154   0.24991   1.000
    Zn1     Zn   0.53692   0.27154   0.24991   1.000
    Zn2     Zn   0.53692   0.77154   0.24991   1.000
    Zn3     Zn   0.08873   0.10140   0.25017   1.000
    Zn4     Zn   0.08873   0.60140   0.25017   1.000
    Zn5     Zn   0.58871   0.10140   0.25017   1.000
    Zn6     Zn   0.58871   0.60140   0.25017   1.000
    Zn7     Zn   0.46304   0.22846   0.75000   1.000
    Zn8     Zn   0.46305   0.72846   0.75000   1.000
    Zn9     Zn   0.96303   0.22846   0.75000   1.000
    Zn10    Zn   0.96303   0.72847   0.75000   1.000
    Zn11    Zn   0.41125   0.39860   0.74900   1.000
    Zn12    Zn   0.41126   0.89860   0.74980   1.000
    Zn13    Zn   0.91123   0.39860   0.74900   1.000
    Zn14    Zn   0.91124   0.89860   0.74900   1.000
    H15     H    0.40020   0.02545   0.02344   1.000
    H16     H    0.40020   0.52545   0.02344   1.000
    H17     H    0.90018   0.02545   0.02344   1.000
    H18     H    0.90018   0.52545   0.02344   1.000
    H19     H    0.11183   0.23564   0.02320   1.000
    H20     H    0.11183   0.73564   0.02320   1.000
    H21     H    0.61181   0.23564   0.02320   1.000
    H22     H    0.61181   0.73564   0.02320   1.000
    H23     H    0.07918   0.20024   0.87989   1.000
    H24     H    0.07919   0.70024   0.87989   1.000
    H25     H    0.57917   0.20024   0.87989   1.000
    H26     H    0.57917   0.70024   0.87989   1.000
    H27     H    0.36010   0.99075   0.88017   1.000
    H28     H    0.36010   0.49075   0.88017   1.000
    H29     H    0.86008   0.99076   0.88017   1.000
    H30     H    0.86008   0.49076   0.88017   1.000
    H31     H    0.18697   0.35779   0.47613   1.000
    Zn32    Zn   0.03693   0.27154   0.24991   1.000
    H33     H    0.18698   0.85779   0.47613   1.000
    H34     H    0.68695   0.35779   0.47613   1.000
    H35     H    0.68695   0.85779   0.47613   1.000
    H36     H    0.05119   0.12915   0.47894   1.000
    H37     H    0.05120   0.62916   0.47894   1.000
    H38     H    0.55117   0.12915   0.47894   1.000
    H39     H    0.55117   0.62915   0.47894   1.000
    H40     H    0.22650   0.39531   0.62056   1.000
    H41     H    0.22651   0.89531   0.62056   1.000
    H42     H    0.72648   0.39531   0.62056   1.000
    H43     H    0.72649   0.89531   0.62056   1.000
    H44     H    0.08395   0.16592   0.62335   1.000
    H45     H    0.08395   0.66592   0.62335   1.000
    H46     H    0.58392   0.16592   0.62335   1.000
    H47     H    0.58393   0.66592   0.62335   1.000
    H48     H    0.09978   0.47455   0.97652   1.000
    H49     H    0.09978   0.97455   0.97652   1.000
    H50     H    0.59976   0.47455   0.97652   1.000
    H51     H    0.59977   0.97456   0.97650   1.000
    H52     H    0.38815   0.26436   0.97676   1.000
    H53     H    0.38816   0.76436   0.97676   1.000
    H54     H    0.88813   0.26436   0.97676   1.000
    H55     H    0.88814   0.76436   0.97676   1.000
    H56     H    0.42080   0.29976   0.12008   1.000
    H57     H    0.42080   0.79976   0.12008   1.000
    H58     H    0.92078   0.29976   0.12008   1.000
    H59     H    0.92078   0.79977   0.12008   1.000
    H60     H    0.13988   0.50924   0.11979   1.000
    H61     H    0.13989   0.00000   0.11900   1.000
    H62     H    0.63986   0.50925   0.11900   1.000
    H63     H    0.63987   0.00000   0.11980   1.000
    H64     H    0.31301   0.14221   0.52384   1.000
    H65     H    0.31302   0.64221   0.52384   1.000
    H66     H    0.81299   0.14221   0.52384   1.000
    H67     H    0.81300   0.64221   0.52384   1.000
    H68     H    0.44879   0.37085   0.52102   1.000
    H69     H    0.44879   0.87085   0.52102   1.000
    H70     H    0.94877   0.37085   0.52102   1.000
    H71     H    0.94877   0.87085   0.52102   1.000
    H72     H    0.27348   0.10469   0.37940   1.000
    H73     H    0.27348   0.60469   0.37940   1.000
    H74     H    0.77346   0.10469   0.37940   1.000
    H75     H    0.77346   0.60469   0.37940   1.000
    H76     H    0.41604   0.33408   0.37661   1.000
    H77     H    0.41604   0.83408   0.37661   1.000
    H78     H    0.91602   0.33408   0.37661   1.000
    H79     H    0.91601   0.83408   0.37661   1.000
    C80     C    0.46697   0.09285   0.86930   1.000
    C81     C    0.46697   0.59285   0.86930   1.000
    C82     C    0.96695   0.09285   0.86930   1.000
    C83     C    0.96695   0.59285   0.86930   1.000
    C84     C    0.03014   0.15392   0.11867   1.000
    C85     C    0.03014   0.65392   0.11867   1.000
    C86     C    0.53012   0.15392   0.11867   1.000
    C87     C    0.53012   0.65392   0.11867   1.000
    C88     C    0.00833   0.13269   0.03222   1.000
    C89     C    0.00833   0.63270   0.03222   1.000
    C90     C    0.50831   0.13269   0.03222   1.000
    C91     C    0.50831   0.63270   0.03222   1.000
    C92     C    0.43823   0.06346   0.99133   1.000
    C93     C    0.43823   0.56347   0.99133   1.000
    C94     C    0.93821   0.06346   0.99130   1.000
    C95     C    0.93822   0.56347   0.99133   1.000
    C96     C    0.05759   0.18192   0.99120   1.000
    C97     C    0.05760   0.68192   0.99120   1.000
    C98     C    0.55757   0.18192   0.99120   1.000
    C99     C    0.55758   0.68192   0.99120   1.000
    C100    C    0.88288   0.75868   0.53077   1.000
    C101    C    0.39274   0.29190   0.40849   1.000
    C102    C    0.39275   0.79190   0.40849   1.000
    C103    C    0.89272   0.29190   0.40849   1.000
    C104    C    0.03810   0.16190   0.91043   1.000
    C105    C    0.03811   0.66190   0.91043   1.000
    C106    C    0.53809   0.16190   0.91043   1.000
    C107    C    0.53809   0.66190   0.91043   1.000
    C108    C    0.41673   0.04398   0.91058   1.000
    C109    C    0.41673   0.54398   0.91058   1.000
    C110    C    0.91671   0.04398   0.91058   1.000
    C111    C    0.91671   0.54398   0.91058   1.000
    C112    C    0.44526   0.07196   0.78426   1.000
    C113    C    0.44526   0.57196   0.78426   1.000
    C114    C    0.94524   0.07196   0.78426   1.000
    C115    C    0.94524   0.57196   0.78426   1.000
    C116    C    0.09591   0.21916   0.38276   1.000
    C117    C    0.09591   0.71916   0.38276   1.000
    C118    C    0.59588   0.21916   0.38276   1.000
    C119    C    0.59588   0.71916   0.38276   1.000
    C120    C    0.17884   0.30487   0.71668   1.000
    C121    C    0.17884   0.80487   0.71668   1.000
    C122    C    0.67882   0.30487   0.71668   1.000
    C123    C    0.67882   0.80487   0.71668   1.000
    C124    C    0.16614   0.31632   0.50916   1.000
    C125    C    0.16614   0.81632   0.50916   1.000
    C126    C    0.66612   0.31632   0.50916   1.000
    C127    C    0.66612   0.81632   0.50916   1.000
    C128    C    0.08824   0.18729   0.51072   1.000
    C129    C    0.08824   0.68729   0.51070   1.000
    C130    C    0.58822   0.18729   0.51070   1.000
    C131    C    0.58822   0.68729   0.51070   1.000
    N132    N    0.08111   0.42331   0.33708   1.000
    N133    N    0.08111   0.92331   0.33708   1.000
    N134    N    0.58109   0.42331   0.33708   1.000
    N135    N    0.58109   0.92331   0.33708   1.000
    N136    N    0.09139   0.49277   0.33712   1.000
    C137    C    0.18752   0.33706   0.58992   1.000
    C138    C    0.18752   0.83706   0.58992   1.000
    C139    C    0.68749   0.33706   0.58992   1.000
    C140    C    0.68750   0.83706   0.58992   1.000
    C141    C    0.11708   0.24132   0.46919   1.000
    C142    C    0.11709   0.74133   0.46900   1.000
    C143    C    0.61706   0.24132   0.46900   1.000
    C144    C    0.61706   0.74133   0.46900   1.000
    C145    C    0.10724   0.20810   0.59147   1.000
    C146    C    0.10724   0.70810   0.59147   1.000
    C147    C    0.60722   0.20810   0.59147   1.000
    C148    C    0.60722   0.70810   0.59140   1.000
    C149    C    0.15764   0.28310   0.63165   1.000
    C150    C    0.15765   0.78310   0.63165   1.000
    C151    C    0.65762   0.28310   0.63165   1.000
    C152    C    0.65763   0.78310   0.63165   1.000
    C153    C    0.03301   0.40715   0.13066   1.000
    C154    C    0.03302   0.90716   0.13066   1.000
    C155    C    0.53299   0.40715   0.13066   1.000
    C156    C    0.53300   0.90716   0.13066   1.000
    C157    C    0.46984   0.34608   0.88129   1.000
    C158    C    0.46985   0.84608   0.88129   1.000
    C159    C    0.96982   0.34608   0.88129   1.000
    C160    C    0.96983   0.84609   0.88129   1.000
    C161    C    0.49165   0.36730   0.96775   1.000
    C162    C    0.49166   0.86731   0.96775   1.000
    C163    C    0.99164   0.36731   0.96775   1.000
    C164    C    0.99164   0.86731   0.96775   1.000
    C165    C    0.06175   0.43654   0.00863   1.000
    C166    C    0.06175   0.93654   0.00863   1.000
    C167    C    0.56173   0.43654   0.00863   1.000
    C168    C    0.56174   0.93654   0.00863   1.000
    C169    C    0.44239   0.31808   0.00877   1.000
    C170    C    0.44240   0.81808   0.00877   1.000
    C171    C    0.94237   0.31808   0.00877   1.000
    C172    C    0.94237   0.81808   0.00877   1.000
    C173    C    0.46188   0.33810   0.08953   1.000
    C174    C    0.46188   0.83811   0.08953   1.000
    C175    C    0.96186   0.33811   0.08953   1.000
    C176    C    0.96186   0.83811   0.08953   1.000
    C177    C    0.08325   0.45602   0.08938   1.000
    C178    C    0.08326   0.95602   0.08938   1.000
    C179    C    0.58323   0.45602   0.08938   1.000
    C180    C    0.58324   0.95603   0.08938   1.000
    C181    C    0.05472   0.42804   0.21570   1.000
    C182    C    0.05472   0.92804   0.21571   1.000
    C183    C    0.55470   0.42804   0.21570   1.000
    C184    C    0.55471   0.92804   0.21571   1.000
    C185    C    0.40408   0.28084   0.61721   1.000
    C186    C    0.40408   0.78085   0.61721   1.000
    C187    C    0.90406   0.28084   0.61721   1.000
    C188    C    0.90406   0.78085   0.61721   1.000
    C189    C    0.32114   0.19513   0.28329   1.000
    C190    C    0.32115   0.69513   0.28329   1.000
    C191    C    0.82112   0.19513   0.28329   1.000
    C192    C    0.82112   0.69513   0.28329   1.000
    C193    C    0.33385   0.18368   0.49080   1.000
    C194    C    0.33385   0.68368   0.49080   1.000
    C195    C    0.83382   0.18368   0.49080   1.000
    C196    C    0.83383   0.68368   0.49080   1.000
    C197    C    0.41175   0.31271   0.48924   1.000
    C198    C    0.41175   0.81271   0.48924   1.000
    C199    C    0.91172   0.31271   0.48924   1.000
    C200    C    0.91173   0.81271   0.48924   1.000
    C201    C    0.31247   0.16294   0.41004   1.000
    C202    C    0.31247   0.66294   0.41004   1.000
    C203    C    0.81244   0.16294   0.41004   1.000
    C204    C    0.81245   0.66294   0.41000   1.000
    C205    C    0.38290   0.25868   0.53077   1.000
    C206    C    0.38290   0.75868   0.53077   1.000
    C207    C    0.88288   0.25868   0.53077   1.000
    C208    C    0.89272   0.79190   0.40849   1.000
    C209    C    0.34234   0.21690   0.36832   1.000
    C210    C    0.34234   0.71690   0.36832   1.000
    C211    C    0.84232   0.21690   0.36832   1.000
    C212    C    0.84232   0.71690   0.36832   1.000
    N213    N    0.44178   0.11872   0.73814   1.000
    N214    N    0.44178   0.61873   0.73814   1.000
    N215    N    0.94176   0.11872   0.73810   1.000
    N216    N    0.94176   0.61873   0.73814   1.000
    N217    N    0.11323   0.28275   0.76283   1.000
    N218    N    0.11323   0.78275   0.76283   1.000
    N219    N    0.61321   0.28275   0.76283   1.000
    N220    N    0.61321   0.78275   0.76283   1.000
    N221    N    0.25470   0.35587   0.83762   1.000
    N222    N    0.25470   0.85587   0.83762   1.000
    N223    N    0.75468   0.35587   0.83762   1.000
    N224    N    0.75468   0.85587   0.83762   1.000
    N225    N    0.16280   0.31549   0.83787   1.000
    N226    N    0.16281   0.81550   0.83787   1.000
    N227    N    0.66279   0.31549   0.83787   1.000
    N228    N    0.66279   0.81550   0.83787   1.000
    N229    N    0.41888   0.07670   0.66288   1.000
    N230    N    0.41888   0.57670   0.66288   1.000
    N231    N    0.91885   0.07670   0.66280   1.000
    N232    N    0.91886   0.57670   0.66288   1.000
    N233    N    0.40861   0.00723   0.66284   1.000
    N234    N    0.40861   0.50723   0.66284   1.000
    N235    N    0.90858   0.00723   0.66284   1.000
    N236    N    0.90858   0.50723   0.66284   1.000
    N237    N    0.26718   0.35039   0.76244   1.000
    N238    N    0.26718   0.85040   0.76244   1.000
    N239    N    0.76716   0.35040   0.76244   1.000
    N240    N    0.76716   0.85040   0.76244   1.000
    N241    N    0.42486   0.00240   0.73805   1.000
    N242    N    0.42486   0.50240   0.73805   1.000
    N243    N    0.92484   0.00240   0.73805   1.000
    N244    N    0.92484   0.50240   0.73805   1.000
    N245    N    0.05821   0.38128   0.26182   1.000
    N246    N    0.05821   0.88128   0.26182   1.000
    N247    N    0.55819   0.38128   0.26182   1.000
    N248    N    0.55819   0.88128   0.26182   1.000
    N249    N    0.38676   0.21725   0.23714   1.000
    N250    N    0.38676   0.71725   0.23714   1.000
    N251    N    0.88674   0.21725   0.23714   1.000
    N252    N    0.88674   0.71725   0.23714   1.000
    N253    N    0.24529   0.14413   0.16234   1.000
    N254    N    0.24528   0.64414   0.16234   1.000
    N255    N    0.74527   0.14413   0.16234   1.000
    N256    N    0.74527   0.64413   0.16234   1.000
    N257    N    0.33718   0.18451   0.16210   1.000
    N258    N    0.33718   0.68451   0.16210   1.000
    N259    N    0.83716   0.18451   0.16210   1.000
    N260    N    0.83716   0.68451   0.16210   1.000
    N261    N    0.09138   0.99277   0.33712   1.000
    N262    N    0.59135   0.49277   0.33712   1.000
    N263    N    0.59135   0.99277   0.33712   1.000
    N264    N    0.23281   0.14960   0.23752   1.000
    N265    N    0.23281   0.64961   0.23752   1.000
    N266    N    0.73279   0.14961   0.23752   1.000
    N267    N    0.73279   0.64961   0.23752   1.000
    N268    N    0.07512   0.49760   0.26191   1.000
    N269    N    0.07512   0.99760   0.26190   1.000
    N270    N    0.57510   0.49760   0.26191   1.000
    N271    N    0.57511   0.99760   0.26190   1.000
    O272    O    0.00551   0.10152   0.15310   1.000
    O273    O    0.00551   0.60152   0.15310   1.000
    O274    O    0.50549   0.10152   0.15312   1.000
    O275    O    0.50549   0.60152   0.15312   1.000
    O276    O    0.07202   0.22326   0.15303   1.000
    O277    O    0.07202   0.72327   0.15300   1.000
    O278    O    0.57200   0.22326   0.15303   1.000
    O279    O    0.57200   0.72327   0.15303   1.000
    O280    O    0.11749   0.27121   0.34768   1.000
    O281    O    0.11749   0.77121   0.34768   1.000
    O282    O    0.61747   0.27121   0.34768   1.000
    O283    O    0.61747   0.77121   0.34768   1.000
    O284    O    0.05763   0.14949   0.34888   1.000
    O285    O    0.05763   0.64950   0.34888   1.000
    O286    O    0.55761   0.14949   0.34888   1.000
    O287    O    0.55761   0.64950   0.34888   1.000
    O288    O    0.49447   0.39848   0.84684   1.000
    O289    O    0.49448   0.89849   0.84684   1.000
    O290    O    0.99445   0.39849   0.84684   1.000
    O291    O    0.99445   0.89849   0.84684   1.000
    O292    O    0.42796   0.27674   0.84694   1.000
    O293    O    0.42796   0.77674   0.84694   1.000
    O294    O    0.92794   0.27674   0.84694   1.000
    O295    O    0.92795   0.77674   0.84694   1.000
    O296    O    0.38249   0.22879   0.65229   1.000
    O297    O    0.38250   0.72879   0.65229   1.000
    O298    O    0.88248   0.22879   0.65229   1.000
    O299    O    0.88248   0.72879   0.65229   1.000
    O300    O    0.44235   0.35051   0.65108   1.000
    O301    O    0.44236   0.85051   0.65108   1.000
    O302    O    0.94233   0.35051   0.65108   1.000
    O303    O    0.94234   0.85051   0.65108   1.000
loop_
    _geom_bond_atom_site_label_1
    _geom_bond_atom_site_label_2
    _geom_bond_distance
    _geom_bond_site_symmetry_2
    _ccdc_geom_bond_type
    C165   C177      1.39015      .   S
    C165   C163      1.40224  1_454   S
    C165   H48       1.08864  1_554   S
    C166   C178      1.39015      .   S
    C166   C164      1.40223  1_454   S
    C166   H49       1.08864  1_554   S
    C167   C179      1.39015      .   S
    C167   C161      1.40207  1_554   S
    C167   H50       1.08864  1_554   S
    C168   C180      1.39015      .   S
    C168   C162      1.40207  1_554   S
    C168   H51       1.08891  1_554   S
    C170   C174      1.39013      .   S
    C170   C162      1.40256  1_554   S
    C170   H53       1.08843  1_554   S
    C169   C173      1.39013      .   S
    C169   C161      1.40254  1_554   S
    C169   H52       1.08845  1_554   S
    C171   C175      1.39013      .   S
    C171   C163      1.40253  1_554   S
    C171   H54       1.08844  1_554   S
    C172   C176      1.39013      .   S
    C172   C164      1.40254  1_554   S
    C172   H55       1.08845  1_554   S
    H22    C99       1.08840  1_554   S
    H21    C98       1.08840  1_554   S
    H20    C97       1.08840  1_554   S
    H19    C96       1.08840  1_554   S
    H15    C92       1.08865  1_554   S
    H16    C93       1.08866  1_554   S
    H17    C94       1.08903  1_554   S
    H18    C95       1.08866  1_554   S
    C91    C87       1.48806      .   S
    C91    C99       1.40256  1_554   S
    C91    C93       1.40210  1_554   S
    C90    C86       1.48806      .   S
    C90    C98       1.40255  1_554   S
    C90    C92       1.40212  1_554   S
    C88    C84       1.48806      .   S
    C88    C96       1.40253  1_554   S
    C88    C94       1.40241  1_454   S
    C89    C85       1.48806      .   S
    C89    C97       1.40254  1_554   S
    C89    C95       1.40227  1_454   S
    C179   H62       1.08576      .   S
    C179   C155      1.40647      .   S
    C178   H61       0.98149  1_565   S
    C178   C154      1.40648      .   S
    C180   H63       0.98531  1_565   S
    C180   C156      1.40647      .   S
    C177   H60       1.08872      .   S
    C177   C153      1.40647      .   S
    C173   H56       1.08884      .   S
    C173   C155      1.40640      .   S
    C174   H57       1.08885      .   S
    C174   C156      1.40640      .   S
    C175   H58       1.08883      .   S
    C175   C153      1.40657  1_655   S
    C176   H59       1.08884      .   S
    C176   C154      1.40656  1_655   S
    C86    O278      1.27998      .   S
    C86    O274      1.28036      .   S
    C87    O279      1.27998      .   S
    C87    O275      1.28035      .   S
    C85    O277      1.27988      .   S
    C85    O273      1.28009      .   S
    C84    O276      1.27998      .   S
    C84    O272      1.28010      .   S
    C154   C182      1.46398      .   S
    C155   C183      1.46381      .   S
    C156   C184      1.46398      .   S
    C153   C181      1.46381      .   S
    O277   Zn0       1.97274      .   S
    O276   Zn32      1.97231      .   S
    O279   Zn2       1.97231      .   S
    O278   Zn1       1.97232      .   S
    O272   Zn3       1.97331      .   S
    O273   Zn4       1.97332      .   S
    O275   Zn6       1.97300      .   S
    O274   Zn5       1.97300      .   S
    N260   N256      1.30319      .   S
    N260   N252      1.36570      .   S
    N259   N255      1.30318      .   S
    N259   N251      1.36570      .   S
    N258   N254      1.30318      .   S
    N258   N250      1.36570      .   S
    N257   N253      1.30318      .   S
    N257   N249      1.36570      .   S
    N256   N267      1.36576      .   S
    N255   N266      1.36576      .   S
    N254   N265      1.36576      .   S
    N253   N264      1.36576      .   S
    C181   N245      1.35060      .   S
    C181   N268      1.35045      .   S
    C183   N247      1.35058      .   S
    C183   N270      1.35047      .   S
    C184   N248      1.35046      .   S
    C184   N271      1.35032      .   S
    C182   N246      1.35046      .   S
    C182   N269      1.35032      .   S
    N252   Zn0       2.02589  1_655   S
    N252   C192      1.34819      .   S
    N251   Zn32      2.02588  1_655   S
    N251   C191      1.34820      .   S
    N250   Zn2       2.02549      .   S
    N250   C190      1.34819      .   S
    N249   Zn1       2.02551      .   S
    N249   C189      1.34819      .   S
    N264   Zn3       2.02841      .   S
    N264   C189      1.34808      .   S
    N265   Zn4       2.02842      .   S
    N265   C190      1.34808      .   S
    N266   Zn5       2.02843      .   S
    N266   C191      1.34808      .   S
    N267   Zn6       2.02843      .   S
    N267   C192      1.34809      .   S
    Zn0    N246      2.00976      .   S
    Zn0    O281      1.96744      .   S
    Zn1    N247      2.00976      .   S
    Zn1    O282      1.96743      .   S
    Zn32   N245      2.00975      .   S
    Zn32   O280      1.96744      .   S
    Zn2    N248      2.00977      .   S
    Zn2    O283      1.96743      .   S
    Zn4    N268      2.01139      .   S
    Zn4    O285      1.97193      .   S
    Zn5    N271      2.01125  1_545   S
    Zn5    O286      1.97194      .   S
    Zn6    N270      2.01138      .   S
    Zn6    O287      1.97192      .   S
    Zn3    N269      2.01126  1_545   S
    Zn3    O284      1.97193      .   S
    N248   N135      1.36789      .   S
    N247   N134      1.36789      .   S
    N246   N133      1.36789      .   S
    N245   N132      1.36790      .   S
    N269   N261      1.36787      .   S
    N271   N263      1.36787      .   S
    N268   N136      1.36769      .   S
    N270   N262      1.36769      .   S
    C192   C212      1.46369      .   S
    C191   C211      1.46369      .   S
    C190   C210      1.46369      .   S
    C189   C209      1.46369      .   S
    N132   N136      1.30385      .   S
    N133   N261      1.30387      .   S
    N134   N262      1.30387      .   S
    N135   N263      1.30387      .   S
    O283   C119      1.27857      .   S
    O282   C118      1.27858      .   S
    O281   C117      1.27856      .   S
    O280   C116      1.27858      .   S
    O287   C119      1.27863      .   S
    O284   C116      1.27863      .   S
    O285   C117      1.27863      .   S
    O286   C118      1.27861      .   S
    C209   C101      1.40583      .   S
    C209   C201      1.40559      .   S
    C210   C102      1.40583      .   S
    C210   C202      1.40559      .   S
    C211   C103      1.40581      .   S
    C211   C203      1.40561      .   S
    C212   C208      1.40583      .   S
    C212   C204      1.40508      .   S
    H79    C208      1.08912      .   S
    H78    C103      1.08914      .   S
    H77    C102      1.08914      .   S
    H76    C101      1.08915      .   S
    H74    C203      1.08922      .   S
    H75    C204      1.08905      .   S
    H72    C201      1.08922      .   S
    H73    C202      1.08922      .   S
    C118   C143      1.48455      .   S
    C117   C142      1.48455      .   S
    C116   C141      1.48781      .   S
    C119   C144      1.48455      .   S
    C101   C197      1.39017      .   S
    C102   C198      1.39016      .   S
    C103   C199      1.39017      .   S
    C208   C200      1.39016      .   S
    C204   C196      1.39096      .   S
    C203   C195      1.39028      .   S
    C201   C193      1.39028      .   S
    C202   C194      1.39028      .   S
    C142   C125      1.40298      .   S
    C142   C129      1.40421      .   S
    C143   C126      1.40298      .   S
    C143   C130      1.40421      .   S
    C144   C127      1.40299      .   S
    C144   C131      1.40420      .   S
    C141   C124      1.40218      .   S
    C141   C128      1.40200      .   S
    H33    C125      1.08854      .   S
    H34    C126      1.08853      .   S
    H35    C127      1.08855      .   S
    H31    C124      1.08854      .   S
    H36    C128      1.08858      .   S
    H39    C131      1.08849      .   S
    H37    C129      1.08849      .   S
    H38    C130      1.08849      .   S
    C200   H71       1.08859      .   S
    C200   C100      1.40200      .   S
    C199   H70       1.08858      .   S
    C199   C207      1.40201      .   S
    C198   H69       1.08858      .   S
    C198   C206      1.40200      .   S
    C197   H68       1.08858      .   S
    C197   C205      1.40201      .   S
    C196   H67       1.08867      .   S
    C196   C100      1.40218      .   S
    C195   H66       1.08867      .   S
    C195   C207      1.40218      .   S
    C194   H65       1.08867      .   S
    C194   C206      1.40218      .   S
    C193   H64       1.08867      .   S
    C193   C205      1.40218      .   S
    C126   C139      1.39028      .   S
    C127   C140      1.39028      .   S
    C124   C137      1.39028      .   S
    C125   C138      1.39028      .   S
    C131   C148      1.38931      .   S
    C130   C147      1.39051      .   S
    C129   C146      1.39051      .   S
    C128   C145      1.39016      .   S
    C100   C188      1.48799      .   S
    C207   C187      1.48799      .   S
    C206   C186      1.48799      .   S
    C205   C185      1.48799      .   S
    C137   H40       1.08920      .   S
    C137   C149      1.40574      .   S
    C138   H41       1.08922      .   S
    C138   C150      1.40572      .   S
    C139   H42       1.08922      .   S
    C139   C151      1.40572      .   S
    C140   H43       1.08920      .   S
    C140   C152      1.40573      .   S
    C148   H47       1.09004      .   S
    C148   C152      1.40617      .   S
    C145   H44       1.08914      .   S
    C145   C149      1.40587      .   S
    C146   H45       1.08914      .   S
    C146   C150      1.40587      .   S
    C147   H46       1.08915      .   S
    C147   C151      1.40587      .   S
    C185   O300      1.27859      .   S
    C185   O296      1.27858      .   S
    C186   O301      1.27858      .   S
    C186   O297      1.27858      .   S
    C187   O302      1.27859      .   S
    C187   O298      1.27857      .   S
    C188   O303      1.27859      .   S
    C188   O299      1.27857      .   S
    C149   C120      1.46369      .   S
    C150   C121      1.46369      .   S
    C151   C122      1.46369      .   S
    C152   C123      1.46369      .   S
    O303   Zn14      1.96025      .   S
    O300   Zn11      1.96027      .   S
    O301   Zn12      1.97208      .   S
    O302   Zn13      1.96027      .   S
    O296   Zn7       1.96654      .   S
    O297   Zn8       1.96652      .   S
    O298   Zn9       1.96654      .   S
    O299   Zn10      1.96654      .   S
    N231   N235      1.30421      .   S
    N231   N215      1.36850      .   S
    N234   N230      1.30386      .   S
    N234   N242      1.36769      .   S
    N233   N229      1.30387      .   S
    N233   N241      1.36769      .   S
    N235   N243      1.36769      .   S
    N236   N232      1.30385      .   S
    N236   N244      1.36770      .   S
    N232   N216      1.36790      .   S
    N230   N214      1.36790      .   S
    N229   N213      1.36790      .   S
    C121   N238      1.34802      .   S
    C121   N218      1.34820      .   S
    C123   N240      1.34802      .   S
    C123   N220      1.34819      .   S
    C122   N239      1.34801      .   S
    C122   N219      1.34819      .   S
    C120   N237      1.34802      .   S
    C120   N217      1.34820      .   S
    N244   Zn13      2.00681      .   S
    N244   C115      1.35045      .   S
    N243   Zn14      2.00676  1_545   S
    N243   C114      1.35046      .   S
    N242   Zn11      2.00681      .   S
    N242   C113      1.35046      .   S
    N241   Zn12      2.01136  1_545   S
    N241   C112      1.35046      .   S
    N215   Zn9       2.00978      .   S
    N215   C114      1.35113      .   S
    N216   Zn10      2.00988      .   S
    N216   C115      1.35061      .   S
    N214   Zn8       2.00988      .   S
    N214   C113      1.35059      .   S
    N213   Zn7       2.00987      .   S
    N213   C112      1.35059      .   S
    Zn11   N237      2.03309      .   S
    Zn11   O288      1.98453      .   S
    Zn13   N239      2.03307      .   S
    Zn13   O290      1.98454      .   S
    Zn14   N240      2.03310      .   S
    Zn14   O291      1.98454      .   S
    Zn12   N238      2.02837      .   S
    Zn12   O289      1.97287      .   S
    Zn7    N219      2.02536      .   S
    Zn7    O292      1.97321      .   S
    Zn10   N218      2.02576  1_655   S
    Zn10   O295      1.97318      .   S
    Zn9    N217      2.02574  1_655   S
    Zn9    O294      1.97319      .   S
    Zn8    N220      2.02537      .   S
    Zn8    O293      1.97319      .   S
    N237   N221      1.36576      .   S
    N238   N222      1.36577      .   S
    N239   N223      1.36576      .   S
    N240   N224      1.36576      .   S
    N217   N225      1.36570      .   S
    N218   N226      1.36570      .   S
    N220   N228      1.36570      .   S
    N219   N227      1.36570      .   S
    C112   C80       1.46381      .   S
    C113   C81       1.46381      .   S
    C114   C82       1.46381      .   S
    C115   C83       1.46381      .   S
    N222   N226      1.30323      .   S
    N221   N225      1.30322      .   S
    N223   N227      1.30322      .   S
    N224   N228      1.30322      .   S
    O288   C157      1.28036      .   S
    O289   C158      1.28034      .   S
    O290   C159      1.28036      .   S
    O291   C160      1.28035      .   S
    O295   C160      1.27994      .   S
    O293   C158      1.27994      .   S
    O294   C159      1.27994      .   S
    O292   C157      1.27994      .   S
    C80    C106      1.40639      .   S
    C80    C108      1.40648      .   S
    C81    C107      1.40640      .   S
    C81    C109      1.40648      .   S
    C82    C104      1.40656  1_655   S
    C82    C110      1.40647      .   S
    C83    C105      1.40656  1_655   S
    C83    C111      1.40647      .   S
    H23    C104      1.08872      .   S
    H24    C105      1.08871      .   S
    H25    C106      1.08873      .   S
    H26    C107      1.08872      .   S
    H27    C108      1.08872  1_565   S
    H28    C109      1.08872      .   S
    H29    C110      1.08872  1_565   S
    H30    C111      1.08873      .   S
    C157   C161      1.48823      .   S
    C158   C162      1.48823      .   S
    C160   C164      1.48823      .   S
    C159   C163      1.48823      .   S
    C107   C99       1.39030      .   S
    C106   C98       1.39030      .   S
    C105   C97       1.39030      .   S
    C104   C96       1.39030      .   S
    C111   C95       1.39015      .   S
    C110   C94       1.38963      .   S
    C109   C93       1.39015      .   S
    C108   C92       1.39015      .   S
