# CIF file generated by openbabel 2.4.90, see http://openbabel.sf.net
data_I
_chemical_name_common ''
_cell_length_a 13.928
_cell_length_b 19.233
_cell_length_c 17.934
_cell_angle_alpha 102.2
_cell_angle_beta 96.875
_cell_angle_gamma 105.929
_space_group_name_H-M_alt 'P 1'
_space_group_name_Hall 'P 1'
loop_
    _symmetry_equiv_pos_as_xyz
    x,y,z
loop_
    _atom_site_label
    _atom_site_type_symbol
    _atom_site_fract_x
    _atom_site_fract_y
    _atom_site_fract_z
    _atom_site_occupancy
    Zn0     Zn   0.03693   0.77154   0.24991   1.000
    Zn1     Zn   0.53692   0.27154   0.24991   1.000
    Zn2     Zn   0.53692   0.77154   0.24991   1.000
    Zn3     Zn   0.08873   0.10140   0.25017   1.000
    Zn4     Zn   0.08873   0.60140   0.25017   1.000
    Zn5     Zn   0.58871   0.10140   0.25017   1.000
    Zn6     Zn   0.58871   0.60140   0.25017   1.000
    Zn7     Zn   0.46304   0.22846   0.75000   1.000
    Zn8     Zn   0.46305   0.72846   0.75000   1.000
    Zn9     Zn   0.96303   0.22846   0.75000   1.000
    Zn10    Zn   0.96303   0.72847   0.75000   1.000
    Zn11    Zn   0.41125   0.39860   0.74900   1.000
    Zn12    Zn   0.41126   0.89860   0.74980   1.000
    Zn13    Zn   0.91123   0.39860   0.74900   1.000
    Zn14    Zn   0.91124   0.89860   0.74900   1.000
    Zn15    Zn   0.03693   0.27154   0.24991   1.000
