# CIF file generated by openbabel 2.4.90, see http://openbabel.sf.net
data_I
_chemical_name_common ''
_cell_length_a 13.928
_cell_length_b 19.233
_cell_length_c 17.934
_cell_angle_alpha 102.2
_cell_angle_beta 96.875
_cell_angle_gamma 105.929
_space_group_name_H-M_alt 'P 1'
_space_group_name_Hall 'P 1'
loop_
    _symmetry_equiv_pos_as_xyz
    x,y,z
loop_
    _atom_site_label
    _atom_site_type_symbol
    _atom_site_fract_x
    _atom_site_fract_y
    _atom_site_fract_z
    _atom_site_occupancy
    Zr0     Zr   0.03693   0.27154   0.24991   1.000
    Zr1     Zr   0.03693   0.77154   0.24991   1.000
    Zr2     Zr   0.53692   0.27154   0.24991   1.000
    Zr3     Zr   0.53692   0.77154   0.24991   1.000
    Zr4     Zr   0.08873   0.10140   0.25017   1.000
    Zr5     Zr   0.08873   0.60140   0.25017   1.000
    Zr6     Zr   0.58871   0.10140   0.25017   1.000
    Zr7     Zr   0.58871   0.60140   0.25017   1.000
    Zr8     Zr   0.46304   0.22846   0.75000   1.000
    Zr9     Zr   0.46305   0.72846   0.75000   1.000
    Zr10    Zr   0.96303   0.22846   0.75000   1.000
    Zr11    Zr   0.96303   0.72847   0.75000   1.000
    Zr12    Zr   0.41125   0.39860   0.74900   1.000
    Zr13    Zr   0.41126   0.89860   0.74980   1.000
    Zr14    Zr   0.91123   0.39860   0.74900   1.000
    Zr15    Zr   0.91124   0.89860   0.74900   1.000
    N16     N    0.47912   0.60470   0.91793   1.000
    O17     O    0.46577   0.63915   0.83100   1.000
    O18     O    0.51311   0.60308   0.05979   1.000
    O19     O    0.51679   0.67605   0.05970   1.000
    O20     O    0.44859   0.52760   0.83073   1.000
    N21     N    0.97912   0.60470   0.91793   1.000
    O22     O    0.01312   0.60308   0.05978   1.000
    O23     O    0.96576   0.63915   0.83100   1.000
    O24     O    0.01680   0.67605   0.05969   1.000
    O25     O    0.94858   0.52760   0.83073   1.000
    N26     N    0.52084   0.39530   0.08199   1.000
    O27     O    0.55137   0.47240   0.16901   1.000
    O28     O    0.53420   0.36085   0.16893   1.000
    O29     O    0.48685   0.39692   0.93995   1.000
    O30     O    0.48317   0.32395   0.94023   1.000
    N31     N    0.02085   0.89479   0.08199   1.000
    O32     O    0.05139   0.97215   0.16901   1.000
    O33     O    0.03421   0.86060   0.16893   1.000
    O34     O    0.98685   0.89667   0.93995   1.000
    O35     O    0.98317   0.82370   0.94023   1.000
    N36     N    0.52085   0.89479   0.08203   1.000
    O37     O    0.55138   0.97215   0.16903   1.000
    O38     O    0.53420   0.86060   0.16895   1.000
    O39     O    0.48686   0.89667   0.94018   1.000
    O40     O    0.48318   0.82370   0.94025   1.000
    N41     N    0.85440   0.72941   0.41675   1.000
    O42     O    0.75757   0.67746   0.33030   1.000
    O43     O    0.90812   0.73690   0.33014   1.000
    O44     O    0.89059   0.80198   0.55839   1.000
    O45     O    0.88858   0.72902   0.55895   1.000
    N46     N    0.02084   0.39530   0.08203   1.000
    O47     O    0.05139   0.47240   0.16904   1.000
    O48     O    0.03421   0.36085   0.16895   1.000
    O49     O    0.98684   0.39692   0.93998   1.000
    O50     O    0.98317   0.32395   0.94025   1.000
    N51     N    0.97912   0.10470   0.91792   1.000
    O52     O    0.01312   0.10308   0.05978   1.000
    O53     O    0.96575   0.13915   0.83099   1.000
    O54     O    0.01680   0.17605   0.05970   1.000
    O55     O    0.94858   0.02760   0.83072   1.000
    N56     N    0.85439   0.22941   0.41675   1.000
    O57     O    0.75757   0.17746   0.33030   1.000
    O58     O    0.90811   0.23690   0.33014   1.000
    O59     O    0.89059   0.30198   0.55839   1.000
    O60     O    0.88857   0.22902   0.55895   1.000
    N61     N    0.35441   0.22941   0.41675   1.000
    O62     O    0.40813   0.23690   0.33014   1.000
    O63     O    0.25759   0.17746   0.33030   1.000
    O64     O    0.38859   0.22902   0.55895   1.000
    O65     O    0.39061   0.30198   0.55839   1.000
    N66     N    0.35442   0.72941   0.41675   1.000
    O67     O    0.40813   0.73691   0.33014   1.000
    O68     O    0.25759   0.67746   0.33030   1.000
    O69     O    0.38859   0.72902   0.55895   1.000
    O70     O    0.39061   0.80198   0.55859   1.000
    N71     N    0.47912   0.10470   0.91793   1.000
    O72     O    0.46577   0.13915   0.83100   1.000
    O73     O    0.51311   0.10308   0.05979   1.000
    O74     O    0.51679   0.17605   0.05970   1.000
    O75     O    0.44859   0.02760   0.83093   1.000
    N76     N    0.14557   0.77059   0.58320   1.000
    O77     O    0.09185   0.76310   0.66981   1.000
    O78     O    0.11139   0.77098   0.44100   1.000
    O79     O    0.24240   0.82255   0.66966   1.000
    O80     O    0.10938   0.69802   0.44136   1.000
    N81     N    0.64555   0.27059   0.58320   1.000
    O82     O    0.59184   0.26310   0.66981   1.000
    O83     O    0.61137   0.27098   0.44100   1.000
    O84     O    0.60935   0.19802   0.44136   1.000
    O85     O    0.74237   0.32254   0.66946   1.000
    N86     N    0.64555   0.77059   0.58320   1.000
    O87     O    0.59184   0.76310   0.66981   1.000
    O88     O    0.61137   0.77098   0.44100   1.000
    O89     O    0.60936   0.69802   0.44136   1.000
    O90     O    0.74237   0.82255   0.66946   1.000
    N91     N    0.14557   0.27059   0.58321   1.000
    O92     O    0.09185   0.26310   0.66981   1.000
    O93     O    0.11139   0.27098   0.44100   1.000
    O94     O    0.24239   0.32254   0.66947   1.000
    O95     O    0.10937   0.19802   0.44137   1.000
loop_
    _geom_bond_atom_site_label_1
    _geom_bond_atom_site_label_2
    _geom_bond_distance
    _geom_bond_site_symmetry_2
    _ccdc_geom_bond_type
    N16    O17       1.82723      .   S
    Zr9    O17       2.47785      .   S
    N16    O18       2.53981  1_556   S
    Zr7    O18       3.46002      .   S
    N16    O19       2.53645  1_556   S
    Zr3    O19       3.45377      .   S
    N16    O20       1.82757      .   S
    Zr12   O20       2.47930      .   S
    N21    O22       2.53976  1_656   S
    Zr5    O22       3.46017      .   S
    N21    O23       1.82723      .   S
    Zr11   O23       2.47786      .   S
    N21    O24       2.53634  1_656   S
    Zr1    O24       3.45388      .   S
    N21    O25       1.82754      .   S
    Zr14   O25       2.47927      .   S
    N26    O27       1.82550      .   S
    Zr7    O27       2.47569      .   S
    N26    O28       1.82736      .   S
    Zr2    O28       2.47762      .   S
    N26    O29       2.54292  1_554   S
    Zr12   O29       3.46979      .   S
    N26    O30       2.53628  1_554   S
    Zr8    O30       3.45407      .   S
    N31    O32       1.82825      .   S
    Zr4    O32       2.47970  1_545   S
    N31    O33       1.82457      .   S
    Zr1    O33       2.47359      .   S
    N31    O34       2.54430  1_454   S
    Zr15   O34       3.47131      .   S
    N31    O35       2.53492  1_454   S
    Zr11   O35       3.45255      .   S
    N36    O37       1.82801      .   S
    Zr6    O37       2.47958  1_545   S
    N36    O38       1.82419      .   S
    Zr3    O38       2.47329      .   S
    N36    O39       2.54115  1_554   S
    Zr13   O39       3.46141      .   S
    N36    O40       2.53527  1_554   S
    Zr9    O40       3.45292      .   S
    N41    O42       1.82370      .   S
    Zr7    O42       2.47997      .   S
    N41    O43       1.81850      .   S
    Zr1    O43       2.46982  1_455   S
    N41    O44       2.54243      .   S
    Zr15   O44       3.46517      .   S
    N41    O45       2.53961      .   S
    Zr11   O45       3.46213      .   S
    N46    O47       1.82522      .   S
    Zr5    O47       2.47553      .   S
    N46    O48       1.82702      .   S
    Zr0    O48       2.47735      .   S
    N46    O49       2.54332  1_454   S
    Zr14   O49       3.47020      .   S
    N46    O50       2.53661  1_454   S
    Zr10   O50       3.45437      .   S
    N51    O52       2.53982  1_656   S
    Zr4    O52       3.46023      .   S
    N51    O53       1.82733      .   S
    Zr10   O53       2.47768      .   S
    N51    O54       2.53651  1_656   S
    Zr0    O54       3.45381      .   S
    N51    O55       1.82749      .   S
    Zr15   O55       2.47922  1_565   S
    N56    O57       1.82370      .   S
    Zr6    O57       2.47996      .   S
    N56    O58       1.81853      .   S
    Zr0    O58       2.46985  1_455   S
    N56    O59       2.54241      .   S
    Zr14   O59       3.46516      .   S
    N56    O60       2.53959      .   S
    Zr10   O60       3.46211      .   S
    N61    O62       1.81847      .   S
    Zr2    O62       2.46960      .   S
    N61    O63       1.82370      .   S
    Zr4    O63       2.47995      .   S
    N61    O64       2.53959      .   S
    Zr8    O64       3.46211      .   S
    N61    O65       2.54241      .   S
    Zr12   O65       3.46516      .   S
    N66    O67       1.81846      .   S
    Zr3    O67       2.46958      .   S
    N66    O68       1.82371      .   S
    Zr5    O68       2.47997      .   S
    N66    O69       2.53959      .   S
    Zr9    O69       3.46211      .   S
    N66    O70       2.54549      .   S
    Zr13   O70       3.47444      .   S
    N71    O72       1.82723      .   S
    Zr8    O72       2.47784      .   S
    N71    O73       2.53981  1_556   S
    Zr6    O73       3.46002      .   S
    N71    O74       2.53645  1_556   S
    Zr2    O74       3.45377      .   S
    N71    O75       1.82521      .   S
    Zr13   O75       2.47546  1_565   S
    N76    O77       1.81842      .   S
    Zr11   O77       2.46937  1_655   S
    N76    O78       2.53970      .   S
    Zr1    O78       3.46274      .   S
    N76    O79       1.82379      .   S
    Zr13   O79       2.48004      .   S
    N76    O80       2.54540      .   S
    Zr5    O80       3.47427      .   S
    N81    O82       1.81836      .   S
    Zr8    O82       2.46912      .   S
    N81    O83       2.53969      .   S
    Zr2    O83       3.46273      .   S
    N81    O84       2.54540      .   S
    Zr6    O84       3.47427      .   S
    N81    O85       1.82146      .   S
    Zr14   O85       2.47636      .   S
    N86    O87       1.81839      .   S
    Zr9    O87       2.46914      .   S
    N86    O88       2.53966      .   S
    Zr3    O88       3.46270      .   S
    N86    O89       2.54537      .   S
    Zr7    O89       3.47423      .   S
    N86    O90       1.82150      .   S
    Zr15   O90       2.47640      .   S
    N91    O92       1.81832      .   S
    Zr10   O92       2.46929  1_655   S
    N91    O93       2.53980      .   S
    Zr0    O93       3.46283      .   S
    N91    O94       1.82139      .   S
    Zr12   O94       2.47633      .   S
    N91    O95       2.54549      .   S
    Zr4    O95       3.47436      .   S
