# CIF file generated by openbabel 2.4.90, see http://openbabel.sf.net
data_I
_chemical_name_common ''
_cell_length_a 13.928
_cell_length_b 19.233
_cell_length_c 17.934
_cell_angle_alpha 102.2
_cell_angle_beta 96.875
_cell_angle_gamma 105.929
_space_group_name_H-M_alt 'P 1'
_space_group_name_Hall 'P 1'
loop_
    _symmetry_equiv_pos_as_xyz
    x,y,z
loop_
    _atom_site_label
    _atom_site_type_symbol
    _atom_site_fract_x
    _atom_site_fract_y
    _atom_site_fract_z
    _atom_site_occupancy
    N0      N    0.47912   0.60470   0.91793   1.000
    N1      N    0.97912   0.60470   0.91793   1.000
    N2      N    0.52084   0.39530   0.08199   1.000
    N3      N    0.02085   0.89479   0.08199   1.000
    N4      N    0.52085   0.89479   0.08203   1.000
    N5      N    0.85440   0.72941   0.41675   1.000
    N6      N    0.02084   0.39530   0.08203   1.000
    N7      N    0.97912   0.10470   0.91792   1.000
    N8      N    0.85439   0.22941   0.41675   1.000
    N9      N    0.35441   0.22941   0.41675   1.000
    N10     N    0.35442   0.72941   0.41675   1.000
    N11     N    0.47912   0.10470   0.91793   1.000
    N12     N    0.14557   0.77059   0.58320   1.000
    N13     N    0.64555   0.27059   0.58320   1.000
    N14     N    0.64555   0.77059   0.58320   1.000
    N15     N    0.14557   0.27059   0.58321   1.000
    Zr16    Zr   0.41126   0.89860   0.74980   1.000
    O17     O    0.42992   0.96310   0.79036   1.000
    O18     O    0.40094   0.85029   0.65420   1.000
    O19     O    0.44906   0.89763   0.84499   1.000
    O20     O    0.32683   0.86057   0.70973   1.000
    Zr21    Zr   0.58871   0.60140   0.25017   1.000
    O22     O    0.55091   0.60224   0.15498   1.000
    O23     O    0.67314   0.63943   0.29023   1.000
    O24     O    0.59903   0.64971   0.34577   1.000
    O25     O    0.57004   0.53690   0.20959   1.000
    Zr26    Zr   0.91123   0.39860   0.74900   1.000
    O27     O    0.92990   0.46310   0.78986   1.000
    O28     O    0.94904   0.39776   0.84449   1.000
    O29     O    0.90091   0.35029   0.65370   1.000
    O30     O    0.82680   0.36057   0.70923   1.000
    Zr31    Zr   0.03693   0.27154   0.24991   1.000
    O32     O    0.03557   0.31620   0.20943   1.000
    O33     O    0.02687   0.22379   0.15480   1.000
    O34     O    0.07416   0.27126   0.34546   1.000
    O35     O    0.97252   0.25422   0.29002   1.000
    Zr36    Zr   0.58871   0.10140   0.25017   1.000
    O37     O    0.55091   0.10224   0.15498   1.000
    O38     O    0.59903   0.14971   0.34577   1.000
    O39     O    0.57004   0.03677   0.20960   1.000
    O40     O    0.67314   0.13943   0.29023   1.000
    Zr41    Zr   0.08873   0.10140   0.25017   1.000
    O42     O    0.09905   0.14971   0.34577   1.000
    O43     O    0.07006   0.03677   0.20959   1.000
    O44     O    0.05093   0.10224   0.15497   1.000
    O45     O    0.17316   0.13943   0.29023   1.000
    Zr46    Zr   0.91124   0.89860   0.74900   1.000
    O47     O    0.92991   0.96310   0.78986   1.000
    O48     O    0.82681   0.86057   0.70923   1.000
    O49     O    0.90091   0.85029   0.65370   1.000
    O50     O    0.94904   0.89763   0.84448   1.000
    Zr51    Zr   0.53692   0.77154   0.24991   1.000
    O52     O    0.47252   0.75422   0.29002   1.000
    O53     O    0.52686   0.72380   0.15481   1.000
    O54     O    0.53556   0.81607   0.20943   1.000
    O55     O    0.57415   0.77126   0.34545   1.000
    Zr56    Zr   0.46304   0.22846   0.75000   1.000
    O57     O    0.52744   0.24578   0.70990   1.000
    O58     O    0.47311   0.27620   0.84511   1.000
    O59     O    0.46440   0.18380   0.79050   1.000
    O60     O    0.42582   0.22874   0.65447   1.000
    Zr61    Zr   0.53692   0.27154   0.24991   1.000
    O62     O    0.52686   0.22380   0.15481   1.000
    O63     O    0.57415   0.27126   0.34545   1.000
    O64     O    0.53556   0.31620   0.20942   1.000
    O65     O    0.47252   0.25422   0.29002   1.000
    Zr66    Zr   0.96303   0.22846   0.75000   1.000
    O67     O    0.02744   0.24578   0.70991   1.000
    O68     O    0.96439   0.18380   0.79049   1.000
    O69     O    0.97310   0.27621   0.84513   1.000
    O70     O    0.92580   0.22874   0.65447   1.000
    Zr71    Zr   0.46305   0.72846   0.75000   1.000
    O72     O    0.42582   0.72874   0.65447   1.000
    O73     O    0.47311   0.77608   0.84513   1.000
    O74     O    0.52744   0.74578   0.70990   1.000
    O75     O    0.46441   0.68381   0.79050   1.000
    Zr76    Zr   0.03693   0.77154   0.24991   1.000
    O77     O    0.02687   0.72380   0.15480   1.000
    O78     O    0.03557   0.81607   0.20942   1.000
    O79     O    0.97252   0.75422   0.29002   1.000
    O80     O    0.07416   0.77126   0.34545   1.000
    Zr81    Zr   0.96303   0.72847   0.75000   1.000
    O82     O    0.96440   0.68381   0.79050   1.000
    O83     O    0.02744   0.74578   0.70990   1.000
    O84     O    0.97310   0.77608   0.84511   1.000
    O85     O    0.92580   0.72874   0.65447   1.000
    Zr86    Zr   0.08873   0.60140   0.25017   1.000
    O87     O    0.17316   0.63943   0.29023   1.000
    O88     O    0.05093   0.60224   0.15498   1.000
    O89     O    0.07006   0.53690   0.20960   1.000
    O90     O    0.09905   0.64971   0.34577   1.000
    Zr91    Zr   0.41125   0.39860   0.74900   1.000
    O92     O    0.42992   0.46310   0.78986   1.000
    O93     O    0.32682   0.36057   0.70923   1.000
    O94     O    0.44905   0.39776   0.84448   1.000
    O95     O    0.40093   0.35029   0.65370   1.000
loop_
    _geom_bond_atom_site_label_1
    _geom_bond_atom_site_label_2
    _geom_bond_distance
    _geom_bond_site_symmetry_2
    _ccdc_geom_bond_type
    Zr16   O17       1.23773      .   S
    N11    O17       3.01451  1_545   S
    Zr16   O18       1.73722      .   S
    N10    O18       4.27633      .   S
    Zr16   O19       1.73070      .   S
    N4     O19       4.26446  1_554   S
    Zr16   O20       1.24002      .   S
    N12    O20       3.01463      .   S
    Zr21   O22       1.73001      .   S
    N0     O22       4.26241  1_556   S
    Zr21   O23       1.23998      .   S
    N5     O23       3.01450      .   S
    Zr21   O24       1.73712      .   S
    N14    O24       4.27610      .   S
    Zr21   O25       1.23785      .   S
    N2     O25       3.01492      .   S
    Zr26   O27       1.23964      .   S
    N1     O27       3.01936      .   S
    Zr26   O28       1.73510      .   S
    N6     O28       4.27108  1_454   S
    Zr26   O29       1.73258      .   S
    N8     O29       4.26860      .   S
    Zr26   O30       1.23818      .   S
    N13    O30       3.00985      .   S
    Zr31   O32       1.23868      .   S
    N6     O32       3.01746      .   S
    Zr31   O33       1.72691      .   S
    N7     O33       4.25572  1_656   S
    Zr31   O34       1.73142      .   S
    N15    O34       4.26444      .   S
    Zr31   O35       1.23492  1_455   S
    N8     O35       3.00377      .   S
    Zr36   O37       1.73001      .   S
    N11    O37       4.26242  1_556   S
    Zr36   O38       1.73714      .   S
    N13    O38       4.27615      .   S
    Zr36   O39       1.23979      .   S
    N4     O39       3.01961  1_565   S
    Zr36   O40       1.23998      .   S
    N8     O40       3.01449      .   S
    Zr41   O42       1.73718      .   S
    N15    O42       4.27628      .   S
    Zr41   O43       1.23985      .   S
    N3     O43       3.01990  1_565   S
    Zr41   O44       1.73011      .   S
    N7     O44       4.26253  1_656   S
    Zr41   O45       1.23998      .   S
    N9     O45       3.01449      .   S
    Zr46   O47       1.23961      .   S
    N7     O47       3.01929  1_545   S
    Zr46   O48       1.23820      .   S
    N14    O48       3.00990      .   S
    Zr46   O49       1.73258      .   S
    N5     O49       4.26862      .   S
    Zr46   O50       1.73566      .   S
    N3     O50       4.27263  1_454   S
    Zr51   O52       1.23479      .   S
    N10    O52       3.00358      .   S
    Zr51   O53       1.72688      .   S
    N0     O53       4.25564  1_556   S
    Zr51   O54       1.23665      .   S
    N4     O54       3.01239      .   S
    Zr51   O55       1.73135      .   S
    N14    O55       4.26423      .   S
    Zr56   O57       1.23456      .   S
    N13    O57       3.00321      .   S
    Zr56   O58       1.72703      .   S
    N2     O58       4.25562  1_554   S
    Zr56   O59       1.23892      .   S
    N11    O59       3.01794      .   S
    Zr56   O60       1.73105      .   S
    N9     O60       4.26386      .   S
    Zr61   O62       1.72688      .   S
    N11    O62       4.25564  1_556   S
    Zr61   O63       1.73136      .   S
    N13    O63       4.26428      .   S
    Zr61   O64       1.23881      .   S
    N2     O64       3.01793      .   S
    Zr61   O65       1.23480      .   S
    N9     O65       3.00360      .   S
    Zr66   O67       1.23464  1_655   S
    N15    O67       3.00325      .   S
    Zr66   O68       1.23884      .   S
    N7     O68       3.01794      .   S
    Zr66   O69       1.72719      .   S
    N6     O69       4.25610  1_454   S
    Zr66   O70       1.73106      .   S
    N8     O70       4.26386      .   S
    Zr71   O72       1.73105      .   S
    N10    O72       4.26386      .   S
    Zr71   O73       1.72646      .   S
    N4     O73       4.25402  1_554   S
    Zr71   O74       1.23457      .   S
    N14    O74       3.00326      .   S
    Zr71   O75       1.23892      .   S
    N0     O75       3.01795      .   S
    Zr76   O77       1.72694      .   S
    N1     O77       4.25559  1_656   S
    Zr76   O78       1.23680      .   S
    N3     O78       3.01292      .   S
    Zr76   O79       1.23491  1_455   S
    N5     O79       3.00373      .   S
    Zr76   O80       1.73137      .   S
    N12    O80       4.26429      .   S
    Zr81   O82       1.23893      .   S
    N1     O82       3.01795      .   S
    Zr81   O83       1.23468  1_655   S
    N12    O83       3.00339      .   S
    Zr81   O84       1.72628      .   S
    N3     O84       4.25349  1_454   S
    Zr81   O85       1.73106      .   S
    N5     O85       4.26389      .   S
    Zr86   O87       1.23998      .   S
    N10    O87       3.01451      .   S
    Zr86   O88       1.73008      .   S
    N1     O88       4.26244  1_656   S
    Zr86   O89       1.23777      .   S
    N6     O89       3.01457      .   S
    Zr86   O90       1.73713      .   S
    N12    O90       4.27614      .   S
    Zr91   O92       1.23965      .   S
    N0     O92       3.01940      .   S
    Zr91   O93       1.23817      .   S
    N15    O93       3.00977      .   S
    Zr91   O94       1.73490      .   S
    N2     O94       4.27048  1_554   S
    Zr91   O95       1.73258      .   S
    N9     O95       4.26860      .   S
