# CIF file generated by openbabel 2.4.90, see http://openbabel.sf.net
data_I
_chemical_name_common ''
_cell_length_a 13.273
_cell_length_b 14.197
_cell_length_c 17.285
_cell_angle_alpha 66.122
_cell_angle_beta 87.262
_cell_angle_gamma 89.829
_space_group_name_H-M_alt 'P 1'
_space_group_name_Hall 'P 1'
loop_
    _symmetry_equiv_pos_as_xyz
    x,y,z
loop_
    _atom_site_label
    _atom_site_type_symbol
    _atom_site_fract_x
    _atom_site_fract_y
    _atom_site_fract_z
    _atom_site_occupancy
    H0      H    0.08038   0.72211   0.25810   1.000
    H1      H    0.00000   0.81243   0.99806   1.000
    H2      H    0.23417   0.98072   0.06048   1.000
    H3      H    0.15205   0.21515   0.29532   1.000
    H4      H    0.10489   0.29574   0.50874   1.000
    H5      H    0.30020   0.04495   0.52823   1.000
    H6      H    0.56864   0.70051   0.29650   1.000
    H7      H    0.72841   0.47022   0.49437   1.000
    H8      H    0.49212   0.64027   0.55809   1.000
    H9      H    0.79921   0.41661   0.01493   1.000
    H10     H    0.66800   0.20893   0.25655   1.000
    H11     H    0.60356   0.16676   0.03040   1.000
    H12     H    0.92153   0.27718   0.74261   1.000
    H13     H    0.00046   0.18498   0.00000   1.000
    H14     H    0.76798   0.01869   0.94058   1.000
    H15     H    0.84583   0.78381   0.70617   1.000
    H16     H    0.89377   0.70349   0.49268   1.000
    H17     H    0.70018   0.95579   0.47233   1.000
    H18     H    0.43246   0.30092   0.70382   1.000
    H19     H    0.27220   0.52987   0.50554   1.000
    H20     H    0.50770   0.35829   0.44269   1.000
    H21     H    0.20001   0.58291   0.98500   1.000
    H22     H    0.33125   0.79140   0.74371   1.000
    H23     H    0.39683   0.83147   0.97054   1.000
    C24     C    0.16144   0.85441   0.16482   1.000
    C25     C    0.09176   0.77250   0.19139   1.000
    C26     C    0.03516   0.75778   0.13078   1.000
    C27     C    0.04920   0.82290   0.04516   1.000
    C28     C    0.12136   0.90293   0.01850   1.000
    C29     C    0.17767   0.91925   0.07849   1.000
    C30     C    0.23238   0.12325   0.40737   1.000
    C31     C    0.16954   0.20307   0.35950   1.000
    C32     C    0.12252   0.26263   0.39804   1.000
    C33     C    0.14365   0.24838   0.48097   1.000
    C34     C    0.21169   0.17279   0.52591   1.000
    C35     C    0.25323   0.10806   0.48991   1.000
    C36     C    0.52338   0.67946   0.42458   1.000
    C37     C    0.58098   0.65868   0.36354   1.000
    C38     C    0.65335   0.58202   0.39024   1.000
    C39     C    0.67083   0.52867   0.47600   1.000
    C40     C    0.61307   0.55037   0.53710   1.000
    C41     C    0.53794   0.62484   0.51073   1.000
    C42     C    0.70742   0.29197   0.01197   1.000
    C43     C    0.75395   0.34791   0.05108   1.000
    C44     C    0.74016   0.31794   0.13907   1.000
    C45     C    0.68068   0.23169   0.18860   1.000
    C46     C    0.63049   0.17840   0.14832   1.000
    C47     C    0.64448   0.20759   0.06090   1.000
    C48     C    0.84040   0.14503   0.83606   1.000
    C49     C    0.91065   0.22653   0.80931   1.000
    C50     C    0.96838   0.24056   0.86968   1.000
    C51     C    0.95485   0.17506   0.95527   1.000
    C52     C    0.88225   0.09541   0.98213   1.000
    C53     C    0.82484   0.07987   0.92238   1.000
    C54     C    0.76677   0.87661   0.59363   1.000
    C55     C    0.82875   0.79614   0.64185   1.000
    C56     C    0.87561   0.73634   0.60348   1.000
    C57     C    0.85508   0.75099   0.52035   1.000
    C58     C    0.78779   0.82722   0.47504   1.000
    C59     C    0.74648   0.89219   0.51089   1.000
    C60     C    0.47691   0.32034   0.57600   1.000
    C61     C    0.41984   0.34207   0.63683   1.000
    C62     C    0.34765   0.41887   0.60983   1.000
    C63     C    0.32971   0.47136   0.52340   1.000
    C64     C    0.38710   0.44883   0.46322   1.000
    C65     C    0.46214   0.37428   0.48988   1.000
    C66     C    0.29252   0.70676   0.98850   1.000
    C67     C    0.24549   0.65150   0.94908   1.000
    C68     C    0.25899   0.68202   0.86100   1.000
    C69     C    0.31877   0.76820   0.81166   1.000
    C70     C    0.36941   0.82089   0.85230   1.000
    C71     C    0.35563   0.79111   0.93980   1.000
loop_
    _geom_bond_atom_site_label_1
    _geom_bond_atom_site_label_2
    _geom_bond_distance
    _geom_bond_site_symmetry_2
    _ccdc_geom_bond_type
    H13    C51       1.05706  1_454   S
    C42    C43       1.39512      .   S
    C42    C47       1.40234      .   S
    H9     C43       1.08486      .   S
    C28    C27       1.40037      .   S
    C28    C29       1.39889      .   S
    H11    C47       1.08885      .   S
    C27    C26       1.39525      .   S
    C27    H1        1.12283  1_554   S
    C43    C44       1.40629      .   S
    H2     C29       1.08756      .   S
    C47    C46       1.39863      .   S
    C29    C24       1.40673      .   S
    C26    C25       1.39965      .   S
    C44    C45       1.39575      .   S
    C46    C45       1.40522      .   S
    C24    C25       1.39708      .   S
    C45    H10       1.08923      .   S
    C25    H0        1.08645      .   S
    H3     C31       1.08824      .   S
    H6     C37       1.08752      .   S
    C31    C32       1.40040      .   S
    C31    C30       1.40212      .   S
    C37    C38       1.39629      .   S
    C37    C36       1.39942      .   S
    C38    C39       1.39562      .   S
    C32    C33       1.40630      .   S
    C30    C35       1.39530      .   S
    C36    C41       1.39565      .   S
    H20    C65       1.08839      .   S
    C64    C65       1.40247      .   S
    C64    C63       1.39887      .   S
    H17    C59       1.08894      .   S
    C58    C59       1.40089      .   S
    C58    C57       1.39893      .   S
    C39    H7        1.08609      .   S
    C39    C40       1.40811      .   S
    C33    H4        1.08762      .   S
    C33    C34       1.39887      .   S
    C65    C60       1.39460      .   S
    C35    C34       1.40100      .   S
    C35    H5        1.08898      .   S
    H16    C57       1.08761      .   S
    H19    C63       1.08595      .   S
    C41    C40       1.40250      .   S
    C41    H8        1.08841      .   S
    C59    C54       1.39543      .   S
    C57    C56       1.40619      .   S
    C63    C62       1.40553      .   S
    C60    C61       1.39982      .   S
    C54    C55       1.40205      .   S
    C56    C55       1.40029      .   S
    C62    C61       1.39617      .   S
    C61    H18       1.08647      .   S
    C55    H15       1.08826      .   S
    H12    C49       1.08659      .   S
    H22    C69       1.08810      .   S
    C49    C48       1.39786      .   S
    C49    C50       1.40043      .   S
    C69    C70       1.40651      .   S
    C69    C68       1.39649      .   S
    C48    C53       1.40675      .   S
    C70    C71       1.39857      .   S
    C68    C67       1.40645      .   S
    C50    C51       1.39550      .   S
    C53    H14       1.08755      .   S
    C53    C52       1.39882      .   S
    C71    H23       1.08896      .   S
    C71    C66       1.40244      .   S
    C67    H21       1.08468      .   S
    C67    C66       1.39488      .   S
    C51    C52       1.40062      .   S
