# CIF file generated by openbabel 2.4.90, see http://openbabel.sf.net
data_I
_chemical_name_common ''
_cell_length_a 13.273
_cell_length_b 14.197
_cell_length_c 17.285
_cell_angle_alpha 66.122
_cell_angle_beta 87.262
_cell_angle_gamma 89.829
_space_group_name_H-M_alt 'P 1'
_space_group_name_Hall 'P 1'
loop_
    _symmetry_equiv_pos_as_xyz
    x,y,z
loop_
    _atom_site_label
    _atom_site_type_symbol
    _atom_site_fract_x
    _atom_site_fract_y
    _atom_site_fract_z
    _atom_site_occupancy
    Lv0     Lv   0.69199   0.26309   0.10020   1.000
    Lv1     Lv   0.59652   0.60389   0.45013   1.000
    Lv2     Lv   0.81114   0.81362   0.55738   1.000
    Lv3     Lv   0.89681   0.16037   0.89534   1.000
    Lv4     Lv   0.10568   0.83834   0.10509   1.000
    Lv5     Lv   0.18780   0.18600   0.44378   1.000
    Lv6     Lv   0.40397   0.39609   0.55013   1.000
    Lv7     Lv   0.30766   0.73625   0.90018   1.000
