# CIF file generated by openbabel 2.4.90, see http://openbabel.sf.net
data_I
_chemical_name_common ''
_cell_length_a 13.273
_cell_length_b 14.197
_cell_length_c 17.285
_cell_angle_alpha 66.122
_cell_angle_beta 87.262
_cell_angle_gamma 89.829
_space_group_name_H-M_alt 'P 1'
_space_group_name_Hall 'P 1'
loop_
    _symmetry_equiv_pos_as_xyz
    x,y,z
loop_
    _atom_site_label
    _atom_site_type_symbol
    _atom_site_fract_x
    _atom_site_fract_y
    _atom_site_fract_z
    _atom_site_occupancy
    H0      H    0.16583   0.10041   0.93623   1.000
    H1      H    0.26830   0.03911   0.90387   1.000
    H2      H    0.07641   0.11037   0.80185   1.000
    H3      H    0.20417   0.28380   0.62555   1.000
    H4      H    0.10432   0.18952   0.65340   1.000
    H5      H    0.30311   0.14599   0.74860   1.000
    H6      H    0.70278   0.37245   0.63179   1.000
    H7      H    0.77822   0.48093   0.62297   1.000
    H8      H    0.65050   0.33831   0.78311   1.000
    H9      H    0.82440   0.49641   0.74676   1.000
    H10     H    0.74836   0.47367   0.89058   1.000
    H11     H    0.85433   0.39545   0.89471   1.000
    H12     H    0.83638   0.89770   0.06480   1.000
    H13     H    0.73488   0.96094   0.09635   1.000
    H14     H    0.92554   0.88708   0.19961   1.000
    H15     H    0.79573   0.71652   0.37527   1.000
    H16     H    0.89604   0.81017   0.34816   1.000
    H17     H    0.69831   0.85574   0.25156   1.000
    H18     H    0.29767   0.62648   0.36814   1.000
    H19     H    0.22181   0.51808   0.37738   1.000
    H20     H    0.34936   0.66020   0.21699   1.000
    H21     H    0.17613   0.50130   0.25372   1.000
    H22     H    0.25243   0.52441   0.10961   1.000
    H23     H    0.14613   0.60216   0.10569   1.000
    C24     C    0.18686   0.05464   0.89950   1.000
    C25     C    0.15771   0.10796   0.80996   1.000
    C26     C    0.18645   0.20045   0.65424   1.000
    C27     C    0.22144   0.14957   0.74230   1.000
    C28     C    0.70828   0.43637   0.65209   1.000
    C29     C    0.70611   0.39808   0.74625   1.000
    C30     C    0.76955   0.43609   0.78451   1.000
    C31     C    0.77500   0.40782   0.87691   1.000
    C32     C    0.81605   0.94413   0.10121   1.000
    C33     C    0.84431   0.89087   0.19101   1.000
    C34     C    0.81392   0.79977   0.34673   1.000
    C35     C    0.77989   0.85086   0.25832   1.000
    C36     C    0.29186   0.56234   0.34813   1.000
    C37     C    0.29399   0.60024   0.25000   1.000
    C38     C    0.23083   0.56175   0.21589   1.000
    C39     C    0.22547   0.59003   0.12347   1.000
    O40     O    0.12905   0.95905   0.93340   1.000
    O41     O    0.23980   0.15184   0.60590   1.000
    O42     O    0.62260   0.50329   0.62234   1.000
    O43     O    0.71553   0.31736   0.92648   1.000
    O44     O    0.87530   0.03881   0.06718   1.000
    O45     O    0.76035   0.84857   0.39474   1.000
    O46     O    0.37731   0.49515   0.37804   1.000
    O47     O    0.28467   0.68073   0.07409   1.000
loop_
    _geom_bond_atom_site_label_1
    _geom_bond_atom_site_label_2
    _geom_bond_distance
    _geom_bond_site_symmetry_2
    _ccdc_geom_bond_type
    H12    C32       1.10537      .   S
    O44    C32       1.44689  1_545   S
    O47    C39       1.43390      .   S
    H13    C32       1.10259      .   S
    C32    C33       1.49183      .   S
    H23    C39       1.10455      .   S
    H22    C39       1.10628      .   S
    C39    C38       1.48647      .   S
    C33    H14       1.09350      .   S
    C33    C35       1.33431      .   S
    C38    C37       1.28839      .   S
    C38    H21       1.09331      .   S
    H20    C37       1.07731      .   S
    C37    C36       1.55690      .   S
    H17    C35       1.09360      .   S
    C35    C34       1.49403      .   S
    C34    H16       1.10312      .   S
    C34    H15       1.10311      .   S
    C34    O45       1.44240      .   S
    C36    H18       1.10125      .   S
    C36    H19       1.10290      .   S
    C36    O46       1.45391      .   S
    O41    C26       1.44329      .   S
    O42    C28       1.45403      .   S
    H7     C28       1.10291      .   S
    H3     C26       1.10316      .   S
    H6     C28       1.10115      .   S
    C28    C29       1.49152      .   S
    H4     C26       1.10312      .   S
    C26    C27       1.49322      .   S
    C27    H5        1.09367      .   S
    C27    C25       1.33468      .   S
    C29    H8        1.09169      .   S
    C29    C30       1.33502      .   S
    H9     C30       1.09324      .   S
    C30    C31       1.48630      .   S
    H2     C25       1.09347      .   S
    C25    C24       1.49165      .   S
    C31    H10       1.10633      .   S
    C31    H11       1.10458      .   S
    C31    O43       1.43423      .   S
    C24    H1        1.10259      .   S
    C24    O40       1.44679  1_545   S
    C24    H0        1.10421      .   S
