# CIF file generated by openbabel 2.4.90, see http://openbabel.sf.net
data_I
_chemical_name_common ''
_cell_length_a 13.273
_cell_length_b 14.197
_cell_length_c 17.285
_cell_angle_alpha 66.122
_cell_angle_beta 87.262
_cell_angle_gamma 89.829
_space_group_name_H-M_alt 'P 1'
_space_group_name_Hall 'P 1'
loop_
    _symmetry_equiv_pos_as_xyz
    x,y,z
loop_
    _atom_site_label
    _atom_site_type_symbol
    _atom_site_fract_x
    _atom_site_fract_y
    _atom_site_fract_z
    _atom_site_occupancy
    N0      N    0.69199   0.26309   0.10020   1.000
    N1      N    0.59652   0.60389   0.45013   1.000
    O2      O    0.67258   0.49336   0.63990   1.000
    N3      N    0.81114   0.81362   0.55738   1.000
    N4      N    0.89681   0.16037   0.89534   1.000
    O5      O    0.80367   0.85043   0.36036   1.000
    N6      N    0.10568   0.83834   0.10509   1.000
    N7      N    0.18780   0.18600   0.44378   1.000
    O8      O    0.15120   0.00453   0.90838   1.000
    N9      N    0.40397   0.39609   0.55013   1.000
    N10     N    0.30766   0.73625   0.90018   1.000
    O11     O    0.28022   0.64595   0.10042   1.000
    Zr12    Zr   0.13657   0.50238   0.75450   1.000
    O13     O    0.04471   0.36148   0.81529   1.000
    O14     O    0.99986   0.62940   0.67310   1.000
    O15     O    0.20485   0.59686   0.81313   1.000
    O16     O    0.24852   0.45809   0.67513   1.000
    Zr17    Zr   0.86403   0.49739   0.24597   1.000
    O18     O    0.75224   0.54212   0.32517   1.000
    O19     O    0.95715   0.63763   0.18517   1.000
    O20     O    0.99966   0.37008   0.32786   1.000
    O21     O    0.79507   0.40292   0.18718   1.000
    Zr22    Zr   0.63874   0.06499   0.69392   1.000
    O23     O    0.54958   0.20178   0.63186   1.000
    O24     O    0.70935   0.96491   0.63861   1.000
    O25     O    0.74614   0.10647   0.77192   1.000
    O26     O    0.49833   0.93195   0.77899   1.000
    Zr27    Zr   0.36139   0.93485   0.30712   1.000
    O28     O    0.45067   0.79807   0.36891   1.000
    O29     O    0.29033   0.03491   0.36244   1.000
    O30     O    0.50163   0.06764   0.22180   1.000
    O31     O    0.25486   0.89304   0.22896   1.000
loop_
    _geom_bond_atom_site_label_1
    _geom_bond_atom_site_label_2
    _geom_bond_distance
    _geom_bond_site_symmetry_2
    _ccdc_geom_bond_type
    N0     O2        7.29317  1_554   S
    N1     O2        3.22193      .   S
    N4     O5        7.47982  1_546   S
    N3     O5        3.23604      .   S
    N7     O8        7.36538      .   S
    N6     O8        3.28791  1_564   S
    N9     O11       7.38702      .   S
    N10    O11       3.16950  1_556   S
    Zr12   O13       2.18694      .   S
    N4     O13       3.23969  1_655   S
    Zr12   O14       2.58748  1_455   S
    N3     O14       3.64959      .   S
    Zr12   O15       2.20064      .   S
    N10    O15       3.26570      .   S
    Zr12   O16       2.23237      .   S
    N9     O16       3.28672      .   S
    Zr17   O18       2.23221      .   S
    N1     O18       3.28668      .   S
    Zr17   O19       2.18927      .   S
    N6     O19       3.24055  1_455   S
    Zr17   O20       2.58143      .   S
    N7     O20       3.64418  1_455   S
    Zr17   O21       2.20653      .   S
    N0     O21       3.27143      .   S
    Zr22   O23       2.17799      .   S
    N9     O23       3.22723      .   S
    Zr22   O24       2.19485  1_545   S
    N3     O24       3.26386      .   S
    Zr22   O25       2.24234      .   S
    N4     O25       3.29756      .   S
    Zr22   O26       2.59107  1_545   S
    N10    O26       3.65186      .   S
    Zr27   O28       2.17796      .   S
    N1     O28       3.22696      .   S
    Zr27   O29       2.19726  1_565   S
    N7     O29       3.26663      .   S
    Zr27   O30       2.58880  1_565   S
    N0     O30       3.64885      .   S
    Zr27   O31       2.23904      .   S
    N6     O31       3.29681      .   S
