# CIF file generated by openbabel 2.4.90, see http://openbabel.sf.net
data_I
_chemical_name_common ''
_cell_length_a 14.559
_cell_length_b 15.905
_cell_length_c 18.506
_cell_angle_alpha 89.983
_cell_angle_beta 86.855
_cell_angle_gamma 90.096
_space_group_name_H-M_alt 'P 1'
_space_group_name_Hall 'P 1'
loop_
    _symmetry_equiv_pos_as_xyz
    x,y,z
loop_
    _atom_site_label
    _atom_site_type_symbol
    _atom_site_fract_x
    _atom_site_fract_y
    _atom_site_fract_z
    _atom_site_occupancy
    C0      C    0.33762   0.24299   0.65295   1.000
    C1      C    0.33762   0.24299   0.15295   1.000
    C2      C    0.61910   0.38864   0.73477   1.000
    C3      C    0.61910   0.38865   0.23476   1.000
    C4      C    0.83734   0.25677   0.90273   1.000
    C5      C    0.83733   0.25676   0.40273   1.000
    C6      C    0.11851   0.11158   0.48470   1.000
    C7      C    0.11852   0.11159   0.00000   1.000
    C8      C    0.66235   0.75701   0.84704   1.000
    C9      C    0.66235   0.75701   0.34703   1.000
    C10     C    0.38087   0.61135   0.76522   1.000
    C11     C    0.38087   0.61135   0.26521   1.000
    C12     C    0.16263   0.74323   0.59726   1.000
    C13     C    0.16263   0.74323   0.09725   1.000
    C14     C    0.88145   0.88841   0.01529   1.000
    C15     C    0.88145   0.88841   0.51528   1.000
