# CIF file generated by openbabel 2.4.90, see http://openbabel.sf.net
data_I
_chemical_name_common ''
_cell_length_a 14.559
_cell_length_b 15.905
_cell_length_c 18.506
_cell_angle_alpha 89.983
_cell_angle_beta 86.855
_cell_angle_gamma 90.096
_space_group_name_H-M_alt 'P 1'
_space_group_name_Hall 'P 1'
loop_
    _symmetry_equiv_pos_as_xyz
    x,y,z
loop_
    _atom_site_label
    _atom_site_type_symbol
    _atom_site_fract_x
    _atom_site_fract_y
    _atom_site_fract_z
    _atom_site_occupancy
    N0      N    0.99999   0.00001   0.75055   1.000
    N1      N    0.99998   0.50000   0.49999   1.000
    N2      N    0.49999   0.00000   0.00032   1.000
    N3      N    0.49998   0.00000   0.75000   1.000
    N4      N    0.49998   0.50000   0.49999   1.000
    N5      N    0.49998   0.00000   0.24999   1.000
    N6      N    0.00049   0.50000   0.24999   1.000
    N7      N    0.49999   0.00000   0.49999   1.000
    N8      N    0.00050   0.50001   0.75000   1.000
    N9      N    0.99998   0.50000   0.99999   1.000
    N10     N    0.99998   1.00000   0.24999   1.000
    N11     N    0.49998   0.50000   0.99999   1.000
    Zr12    Zr   0.28010   0.66661   0.16549   1.000
    O13     O    0.36924   0.61222   0.28099   1.000
    O14     O    0.17145   0.77715   0.17130   1.000
    O15     O    0.21308   0.60779   0.11023   1.000
    O16     O    0.35477   0.75561   0.10473   1.000
    Zr17    Zr   0.21972   0.16658   0.58453   1.000
    O18     O    0.32853   0.27709   0.57875   1.000
    O19     O    0.13051   0.11226   0.46900   1.000
    O20     O    0.28675   0.10776   0.63972   1.000
    O21     O    0.14524   0.25556   0.64530   1.000
    Zr22    Zr   0.21972   0.16659   0.08671   1.000
    O23     O    0.13051   0.11226   0.97214   1.000
    O24     O    0.28675   0.10776   0.14080   1.000
    O25     O    0.14524   0.25556   0.14639   1.000
    O26     O    0.32853   0.27710   0.07984   1.000
    Zr27    Zr   0.78025   0.83341   0.41546   1.000
    O28     O    0.86946   0.88774   0.53113   1.000
    O29     O    0.71321   0.89224   0.36027   1.000
    O30     O    0.85498   0.74444   0.35468   1.000
    O31     O    0.67144   0.72290   0.42123   1.000
    Zr32    Zr   0.78025   0.83341   0.91547   1.000
    O33     O    0.71321   0.89224   0.86027   1.000
    O34     O    0.85498   0.74444   0.85469   1.000
    O35     O    0.86946   0.88774   0.03099   1.000
    O36     O    0.67144   0.72290   0.92124   1.000
    Zr37    Zr   0.28010   0.66660   0.66550   1.000
    O38     O    0.17145   0.77715   0.67145   1.000
    O39     O    0.21308   0.60779   0.61024   1.000
    O40     O    0.35477   0.75560   0.60466   1.000
    O41     O    0.36924   0.61222   0.78099   1.000
    Zr42    Zr   0.71987   0.33339   0.33449   1.000
    O43     O    0.82852   0.22284   0.32867   1.000
    O44     O    0.78689   0.39221   0.38975   1.000
    O45     O    0.64520   0.24439   0.39533   1.000
    O46     O    0.63073   0.38778   0.21899   1.000
    Zr47    Zr   0.71987   0.33339   0.83450   1.000
    O48     O    0.82852   0.22285   0.82882   1.000
    O49     O    0.78689   0.39221   0.88975   1.000
    O50     O    0.64520   0.24439   0.89541   1.000
    O51     O    0.63073   0.38778   0.71900   1.000
loop_
    _geom_bond_atom_site_label_1
    _geom_bond_atom_site_label_2
    _geom_bond_distance
    _geom_bond_site_symmetry_2
    _ccdc_geom_bond_type
    Zr12   O13       2.70338      .   S
    N4     O13       4.90801      .   S
    Zr12   O14       2.36560      .   S
    N10    O14       4.53306  1_655   S
    Zr12   O15       1.72624      .   S
    N9     O15       4.17195  1_656   S
    Zr12   O16       2.07592      .   S
    N2     O16       4.77839  1_545   S
    Zr17   O18       2.36273      .   S
    N4     O18       4.52688      .   S
    Zr17   O19       2.70309      .   S
    N10    O19       4.90546  1_665   S
    Zr17   O20       1.72714      .   S
    N3     O20       4.17735      .   S
    Zr17   O21       2.07746      .   S
    N8     O21       4.78479      .   S
    Zr22   O23       2.68851  1_554   S
    N0     O23       4.94599  1_655   S
    Zr22   O24       1.71460      .   S
    N5     O24       4.16664      .   S
    Zr22   O25       2.06712      .   S
    N6     O25       4.77708      .   S
    Zr22   O26       2.36296      .   S
    N11    O26       4.53277  1_556   S
    Zr27   O28       2.70519      .   S
    N0     O28       4.91202  1_545   S
    Zr27   O29       1.72719      .   S
    N5     O29       4.17743  1_545   S
    Zr27   O30       2.07926      .   S
    N6     O30       4.78939  1_455   S
    Zr27   O31       2.36269      .   S
    N4     O31       4.52683      .   S
    Zr32   O33       1.72717      .   S
    N3     O33       4.17740  1_545   S
    Zr32   O34       2.07923      .   S
    N8     O34       4.78936  1_455   S
    Zr32   O35       2.70299  1_556   S
    N10    O35       4.90530      .   S
    Zr32   O36       2.36269      .   S
    N11    O36       4.52681      .   S
    Zr37   O38       2.36565      .   S
    N0     O38       4.53534  1_645   S
    Zr37   O39       1.72626      .   S
    N1     O39       4.17201  1_655   S
    Zr37   O40       2.07672      .   S
    N7     O40       4.78015  1_545   S
    Zr37   O41       2.70333      .   S
    N11    O41       4.90790      .   S
    Zr42   O43       2.36560      .   S
    N10    O43       4.53305  1_565   S
    Zr42   O44       1.72626      .   S
    N1     O44       4.17197      .   S
    Zr42   O45       2.07669      .   S
    N7     O45       4.78010      .   S
    Zr42   O46       2.70336      .   S
    N11    O46       4.90793  1_556   S
    Zr47   O48       2.36555      .   S
    N0     O48       4.53078      .   S
    Zr47   O49       1.72624      .   S
    N9     O49       4.17191      .   S
    Zr47   O50       2.07743      .   S
    N2     O50       4.78173  1_554   S
    Zr47   O51       2.70339      .   S
    N4     O51       4.90803      .   S
