# CIF file generated by openbabel 2.4.90, see http://openbabel.sf.net
data_I
_chemical_name_common ''
_cell_length_a 6.7565
_cell_length_b 7.1535
_cell_length_c 7.1865
_cell_angle_alpha 90.002
_cell_angle_beta 90.007
_cell_angle_gamma 90.001
_space_group_name_H-M_alt 'P 1'
_space_group_name_Hall 'P 1'
loop_
    _symmetry_equiv_pos_as_xyz
    x,y,z
loop_
    _atom_site_label
    _atom_site_type_symbol
    _atom_site_fract_x
    _atom_site_fract_y
    _atom_site_fract_z
    _atom_site_occupancy
    Lv0     Lv   0.49997   0.50009   0.49998   1.000
    Lv1     Lv   0.00006   0.68761   0.31300   1.000
    Lv2     Lv   0.00005   0.31253   0.31295   1.000
    Lv3     Lv   0.99990   0.31252   0.68705   1.000
    Lv4     Lv   0.99990   0.68761   0.68699   1.000
