# CIF file generated by openbabel 2.4.90, see http://openbabel.sf.net
data_I
_chemical_name_common ''
_cell_length_a 6.7565
_cell_length_b 7.1535
_cell_length_c 7.1865
_cell_angle_alpha 90.002
_cell_angle_beta 90.007
_cell_angle_gamma 90.001
_space_group_name_H-M_alt 'P 1'
_space_group_name_Hall 'P 1'
loop_
    _symmetry_equiv_pos_as_xyz
    x,y,z
loop_
    _atom_site_label
    _atom_site_type_symbol
    _atom_site_fract_x
    _atom_site_fract_y
    _atom_site_fract_z
    _atom_site_occupancy
    Pt0     Pt   0.00000   0.00001   0.00000   1.000
    C1      C    0.99987   0.80243   0.80344   1.000
    C2      C    0.00010   0.80243   0.19656   1.000
    C3      C    0.00009   0.19765   0.19655   1.000
    C4      C    0.99987   0.19765   0.80345   1.000
    Fe5     Fe   0.99993   0.50010   0.49999   1.000
loop_
    _geom_bond_atom_site_label_1
    _geom_bond_atom_site_label_2
    _geom_bond_distance
    _geom_bond_site_symmetry_2
    _ccdc_geom_bond_type
    Pt0    C3        1.99847      .   S
    Pt0    C2        1.99831  1_545   S
    Pt0    C1        1.99825  1_444   S
    Pt0    C4        1.99855  1_454   S
