# CIF file generated by openbabel 2.4.90, see http://openbabel.sf.net
data_I
_chemical_name_common ''
_cell_length_a 22.684
_cell_length_b 12.99
_cell_length_c 12.986
_cell_angle_alpha 117.495
_cell_angle_beta 94.955
_cell_angle_gamma 85.039
_space_group_name_H-M_alt 'P 1'
_space_group_name_Hall 'P 1'
loop_
    _symmetry_equiv_pos_as_xyz
    x,y,z
loop_
    _atom_site_label
    _atom_site_type_symbol
    _atom_site_fract_x
    _atom_site_fract_y
    _atom_site_fract_z
    _atom_site_occupancy
    Zr0     Zr   0.43508   0.49516   0.97368   1.000
    Zr1     Zr   0.93509   0.49516   0.97368   1.000
    Zr2     Zr   0.31492   0.97366   0.49510   1.000
    Zr3     Zr   0.81492   0.97366   0.49510   1.000
    Zr4     Zr   0.06492   0.50484   0.02633   1.000
    Zr5     Zr   0.56492   0.50484   0.02633   1.000
    Zr6     Zr   0.18509   0.02634   0.50485   1.000
    Zr7     Zr   0.68509   0.02634   0.50485   1.000
    O8      O    0.50000   0.50000   0.00000   1.000
    O9      O    0.00000   0.50000   0.00000   1.000
    O10     O    0.25000   1.00000   0.49997   1.000
    O11     O    0.75000   1.00000   0.49997   1.000
    N12     N    0.23425   0.36627   0.19859   1.000
    O13     O    0.17152   0.44101   0.13048   1.000
    N14     N    0.26576   0.63373   0.80141   1.000
    O15     O    0.32849   0.55898   0.86951   1.000
    N16     N    0.01576   0.19861   0.36624   1.000
    O17     O    0.07849   0.13050   0.44098   1.000
    N18     N    0.98424   0.80139   0.63373   1.000
    O19     O    0.92152   0.86950   0.55898   1.000
    N20     N    0.48424   0.80139   0.63373   1.000
    O21     O    0.42151   0.86950   0.55898   1.000
    N22     N    0.76576   0.63373   0.80141   1.000
    O23     O    0.82849   0.55898   0.86951   1.000
    N24     N    0.73425   0.36627   0.19859   1.000
    O25     O    0.67152   0.44101   0.13049   1.000
    N26     N    0.51576   0.19861   0.36626   1.000
    O27     O    0.57849   0.13050   0.44099   1.000
    O28     O    0.23064   0.84260   0.68516   1.000
    O29     O    0.21204   0.18044   0.32073   1.000
    O30     O    0.53797   0.32074   0.18044   1.000
    O31     O    0.48064   0.31487   0.15742   1.000
    O32     O    0.51937   0.68513   0.84258   1.000
    O33     O    0.73064   0.84260   0.68515   1.000
    O34     O    0.71204   0.18044   0.32073   1.000
    O35     O    0.03796   0.32074   0.18043   1.000
    O36     O    0.01936   0.68513   0.84258   1.000
    O37     O    0.46204   0.67926   0.81956   1.000
    O38     O    0.28796   0.81956   0.67926   1.000
    O39     O    0.26937   0.15740   0.31483   1.000
    O40     O    0.78796   0.81956   0.67926   1.000
    O41     O    0.76937   0.15740   0.31483   1.000
    O42     O    0.98064   0.31487   0.15741   1.000
    O43     O    0.96204   0.67926   0.81956   1.000
loop_
    _geom_bond_atom_site_label_1
    _geom_bond_atom_site_label_2
    _geom_bond_distance
    _geom_bond_site_symmetry_2
    _ccdc_geom_bond_type
    Zr0    O8        1.48275  1_556   S
    Zr5    O8        1.48275      .   S
    Zr1    O9        1.48270  1_656   S
    Zr4    O9        1.48270      .   S
    Zr2    O10       1.48268      .   S
    Zr6    O10       1.48268  1_545   S
    Zr3    O11       1.48269      .   S
    Zr7    O11       1.48269  1_545   S
    N12    O13       2.02151      .   S
    Zr4    O13       2.91332      .   S
    N14    O15       2.02144      .   S
    Zr0    O15       2.91346      .   S
    N16    O17       2.02144      .   S
    Zr6    O17       2.91366      .   S
    N18    O19       2.02150      .   S
    Zr3    O19       2.91373      .   S
    N20    O21       2.02152      .   S
    Zr2    O21       2.91375      .   S
    N22    O23       2.02145      .   S
    Zr1    O23       2.91346      .   S
    N24    O25       2.02140      .   S
    Zr5    O25       2.91343      .   S
    N26    O27       2.02136      .   S
    Zr7    O27       2.91361      .   S
    Zr6    O28       4.06972  1_545   S
    N14    O28       3.67091      .   S
    Zr6    O29       3.87059      .   S
    N12    O29       3.53270      .   S
    N26    O30       3.53218      .   S
    Zr5    O30       3.87062      .   S
    N26    O31       3.67032      .   S
    Zr0    O31       4.06949  1_556   S
    Zr5    O32       4.06960  1_554   S
    N20    O32       3.67038      .   S
    Zr7    O33       4.06970  1_545   S
    N22    O33       3.67090      .   S
    Zr7    O34       3.87061      .   S
    N24    O34       3.53269      .   S
    Zr4    O35       3.87048      .   S
    N16    O35       3.53203      .   S
    Zr4    O36       4.06958  1_554   S
    N18    O36       3.67040  1_655   S
    Zr0    O37       3.87071      .   S
    N20    O37       3.53227      .   S
    Zr2    O38       3.87101      .   S
    N14    O38       3.53281      .   S
    Zr2    O39       4.06931  1_565   S
    N12    O39       3.67082      .   S
    Zr3    O40       3.87100      .   S
    N22    O40       3.53279      .   S
    Zr3    O41       4.06930  1_565   S
    N24    O41       3.67082      .   S
    Zr1    O42       4.06937  1_556   S
    N16    O42       3.67016  1_455   S
    Zr1    O43       3.87070      .   S
    N18    O43       3.53227      .   S
