# CIF file generated by openbabel 2.4.90, see http://openbabel.sf.net
data_I
_chemical_name_common ''
_cell_length_a 23.83
_cell_length_b 23.831
_cell_length_c 15.27
_cell_angle_alpha 109.83
_cell_angle_beta 109.896
_cell_angle_gamma 97.193
_space_group_name_H-M_alt 'P 1'
_space_group_name_Hall 'P 1'
loop_
    _symmetry_equiv_pos_as_xyz
    x,y,z
loop_
    _atom_site_label
    _atom_site_type_symbol
    _atom_site_fract_x
    _atom_site_fract_y
    _atom_site_fract_z
    _atom_site_occupancy
    N0      N    0.71020   0.97546   0.71462   1.000
    N1      N    0.47546   0.21033   0.21482   1.000
    N2      N    0.47549   0.71024   0.21487   1.000
    N3      N    0.10548   0.13527   0.15525   1.000
    N4      N    0.60551   0.63527   0.15538   1.000
    N5      N    0.39448   0.86468   0.84465   1.000
    N6      N    0.28977   0.52453   0.28532   1.000
    N7      N    0.97543   0.21030   0.21471   1.000
    N8      N    0.60548   0.13530   0.15536   1.000
    N9      N    0.02448   0.28983   0.78536   1.000
    N10     N    0.86453   0.39448   0.34470   1.000
    N11     N    0.89453   0.36468   0.84466   1.000
    N12     N    0.36452   0.39457   0.34485   1.000
    N13     N    0.97537   0.71015   0.21465   1.000
    N14     N    0.86455   0.89447   0.34480   1.000
    N15     N    0.28976   0.02442   0.28539   1.000
    N16     N    0.89448   0.86471   0.84476   1.000
    N17     N    0.71019   0.47545   0.71467   1.000
    N18     N    0.21031   0.47559   0.71480   1.000
    N19     N    0.21029   0.97550   0.71473   1.000
    N20     N    0.63541   0.10546   0.65521   1.000
    N21     N    0.13541   0.10551   0.65520   1.000
    N22     N    0.13543   0.60550   0.65530   1.000
    N23     N    0.02443   0.78968   0.78530   1.000
    N24     N    0.52447   0.28974   0.78513   1.000
    N25     N    0.52450   0.78965   0.78519   1.000
    N26     N    0.10544   0.63530   0.15524   1.000
    N27     N    0.78967   0.02439   0.28527   1.000
    N28     N    0.63544   0.60541   0.65516   1.000
    N29     N    0.36455   0.89452   0.34479   1.000
    N30     N    0.78965   0.52439   0.28521   1.000
    N31     N    0.39445   0.36471   0.84463   1.000
    Zr32    Zr   0.92468   0.07539   0.75001   1.000
    O33     O    0.84870   0.03106   0.74277   1.000
    O34     O    0.90923   0.99600   0.78780   1.000
    O35     O    0.90358   0.99744   0.59181   1.000
    O36     O    0.93874   0.12992   0.93778   1.000
    O37     O    0.00260   0.09641   0.90822   1.000
    O38     O    0.87012   0.06126   0.56221   1.000
    O39     O    0.00410   0.09081   0.71221   1.000
    O40     O    0.96900   0.15136   0.75725   1.000
    Zr41    Zr   0.92465   0.57531   0.74998   1.000
    O42     O    0.96896   0.65124   0.75721   1.000
    O43     O    0.00410   0.59073   0.71224   1.000
    O44     O    0.84867   0.53100   0.74274   1.000
    O45     O    0.90923   0.49594   0.78773   1.000
    O46     O    0.87010   0.56118   0.56216   1.000
    O47     O    0.93869   0.62980   0.93774   1.000
    O48     O    0.00256   0.59639   0.90823   1.000
    O49     O    0.90355   0.49739   0.59175   1.000
    Zr50    Zr   0.57509   0.92454   0.24993   1.000
    O51     O    0.59631   0.00250   0.40817   1.000
    O52     O    0.49723   0.90353   0.09170   1.000
    O53     O    0.62970   0.93866   0.43769   1.000
    O54     O    0.49575   0.90918   0.28775   1.000
    O55     O    0.53086   0.84863   0.24279   1.000
    O56     O    0.65112   0.96886   0.25716   1.000
    O57     O    0.59060   0.00397   0.21222   1.000
    O58     O    0.56106   0.87002   0.06213   1.000
    Zr59    Zr   0.07527   0.42467   0.24996   1.000
    O60     O    0.09638   0.50259   0.40822   1.000
    O61     O    0.03095   0.34874   0.24276   1.000
    O62     O    0.99584   0.40925   0.28773   1.000
    O63     O    0.15127   0.46898   0.25722   1.000
    O64     O    0.09071   0.50404   0.21220   1.000
    O65     O    0.12984   0.43880   0.43780   1.000
    O66     O    0.06122   0.37018   0.06224   1.000
    O67     O    0.99738   0.40359   0.09171   1.000
    Zr68    Zr   0.57502   0.42457   0.24988   1.000
    O69     O    0.65107   0.46885   0.25711   1.000
    O70     O    0.59057   0.50396   0.21218   1.000
    O71     O    0.59627   0.50249   0.40812   1.000
    O72     O    0.53080   0.34870   0.24274   1.000
    O73     O    0.49569   0.40922   0.28774   1.000
    O74     O    0.62964   0.43867   0.43770   1.000
    O75     O    0.56102   0.37009   0.06208   1.000
    O76     O    0.49715   0.40353   0.09166   1.000
    Zr77    Zr   0.42486   0.07539   0.75005   1.000
    O78     O    0.50421   0.09078   0.71224   1.000
    O79     O    0.46910   0.15132   0.75721   1.000
    O80     O    0.40936   0.99598   0.78778   1.000
    O81     O    0.34884   0.03108   0.74283   1.000
    O82     O    0.50273   0.09643   0.90830   1.000
    O83     O    0.37026   0.06128   0.56230   1.000
    O84     O    0.40365   0.99746   0.59182   1.000
    O85     O    0.43890   0.12993   0.93780   1.000
    Zr86    Zr   0.42494   0.57541   0.75012   1.000
    O87     O    0.40368   0.49748   0.59188   1.000
    O88     O    0.50280   0.59645   0.90834   1.000
    O89     O    0.43893   0.62988   0.93792   1.000
    O90     O    0.37031   0.56130   0.56230   1.000
    O91     O    0.34888   0.53113   0.74289   1.000
    O92     O    0.40938   0.49602   0.78782   1.000
    O93     O    0.50427   0.59075   0.71227   1.000
    O94     O    0.46916   0.65128   0.75726   1.000
    Zr95    Zr   0.07523   0.92455   0.25000   1.000
    O96     O    0.99733   0.90355   0.09178   1.000
    O97     O    0.09635   0.00252   0.40819   1.000
    O98     O    0.09070   0.00396   0.21221   1.000
    O99     O    0.15123   0.96887   0.25724   1.000
    O100    O    0.99583   0.90915   0.28779   1.000
    O101    O    0.03091   0.84860   0.24276   1.000
    O102    O    0.06117   0.87004   0.06223   1.000
    O103    O    0.12981   0.93867   0.43779   1.000
loop_
    _geom_bond_atom_site_label_1
    _geom_bond_atom_site_label_2
    _geom_bond_distance
    _geom_bond_site_symmetry_2
    _ccdc_geom_bond_type
    Zr32   O33       1.92666      .   S
    N0     O33       3.22281  1_565   S
    Zr32   O34       2.18153  1_545   S
    N16    O34       3.52819      .   S
    Zr32   O35       2.33103  1_545   S
    N14    O35       3.44595      .   S
    Zr32   O36       2.59450      .   S
    N7     O36       3.72612  1_554   S
    Zr32   O37       2.32992  1_655   S
    N3     O37       3.44437  1_554   S
    Zr32   O38       2.59326      .   S
    N27    O38       3.72413      .   S
    Zr32   O39       2.18258  1_655   S
    N21    O39       3.52950      .   S
    Zr32   O40       1.92642      .   S
    N9     O40       3.22203  1_455   S
    Zr41   O42       1.92566      .   S
    N23    O42       3.22138  1_455   S
    Zr41   O43       2.18259  1_655   S
    N22    O43       3.52964      .   S
    Zr41   O44       1.92641      .   S
    N17    O44       3.22261      .   S
    Zr41   O45       2.18052      .   S
    N11    O45       3.52719      .   S
    Zr41   O46       2.59349      .   S
    N30    O46       3.72483      .   S
    Zr41   O47       2.59434      .   S
    N13    O47       3.72583  1_554   S
    Zr41   O48       2.32983  1_655   S
    N26    O48       3.44398  1_554   S
    Zr41   O49       2.33113      .   S
    N10    O49       3.44594      .   S
    Zr50   O51       2.33105  1_565   S
    N20    O51       3.44585      .   S
    Zr50   O52       2.32944      .   S
    N5     O52       3.44375  1_556   S
    Zr50   O53       2.59310      .   S
    N0     O53       3.72452      .   S
    Zr50   O54       2.18076      .   S
    N29    O54       3.52735      .   S
    Zr50   O55       1.92506      .   S
    N2     O55       3.22090      .   S
    Zr50   O56       1.92742      .   S
    N27    O56       3.22377  1_545   S
    Zr50   O57       2.18180  1_565   S
    N8     O57       3.52840      .   S
    Zr50   O58       2.59491      .   S
    N25    O58       3.72698  1_556   S
    Zr59   O60       2.33125      .   S
    N22    O60       3.44626      .   S
    Zr59   O61       1.92590      .   S
    N7     O61       3.22185  1_655   S
    Zr59   O62       2.18239  1_455   S
    N10    O62       3.52938      .   S
    Zr59   O63       1.92673      .   S
    N6     O63       3.22291      .   S
    Zr59   O64       2.18067      .   S
    N26    O64       3.52751      .   S
    Zr59   O65       2.59390      .   S
    N18    O65       3.72545      .   S
    Zr59   O66       2.59386      .   S
    N9     O66       3.72511  1_556   S
    Zr59   O67       2.32956  1_455   S
    N11    O67       3.44426  1_556   S
    Zr68   O69       1.92772      .   S
    N30    O69       3.22434      .   S
    Zr68   O70       2.18093      .   S
    N4     O70       3.52770      .   S
    Zr68   O71       2.33038      .   S
    N28    O71       3.44530      .   S
    Zr68   O72       1.92423      .   S
    N1     O72       3.22003      .   S
    Zr68   O73       2.18087      .   S
    N12    O73       3.52722      .   S
    Zr68   O74       2.59395      .   S
    N17    O74       3.72535      .   S
    Zr68   O75       2.59523      .   S
    N24    O75       3.72700  1_556   S
    Zr68   O76       2.32927      .   S
    N31    O76       3.44331  1_556   S
    Zr77   O78       2.18071      .   S
    N20    O78       3.52731      .   S
    Zr77   O79       1.92539      .   S
    N24    O79       3.22130      .   S
    Zr77   O80       2.18146  1_545   S
    N5     O80       3.52804      .   S
    Zr77   O81       1.92752      .   S
    N19    O81       3.22408  1_565   S
    Zr77   O82       2.32949      .   S
    N8     O82       3.44383  1_554   S
    Zr77   O83       2.59286      .   S
    N15    O83       3.72403      .   S
    Zr77   O84       2.33068  1_545   S
    N29    O84       3.44554      .   S
    Zr77   O85       2.59435      .   S
    N1     O85       3.72804  1_554   S
    Zr86   O87       2.33041      .   S
    N12    O87       3.44515      .   S
    Zr86   O88       2.32933      .   S
    N4     O88       3.44342  1_554   S
    Zr86   O89       2.59529      .   S
    N2     O89       3.72700  1_554   S
    Zr86   O90       2.59393      .   S
    N6     O90       3.72543      .   S
    Zr86   O91       1.92773      .   S
    N18    O91       3.22435      .   S
    Zr86   O92       2.18097      .   S
    N31    O92       3.52775      .   S
    Zr86   O93       2.18082      .   S
    N28    O93       3.52722      .   S
    Zr86   O94       1.92422      .   S
    N25    O94       3.22004      .   S
    Zr95   O96       2.32975  1_455   S
    N16    O96       3.44430  1_556   S
    Zr95   O97       2.33111  1_565   S
    N21    O97       3.44594      .   S
    Zr95   O98       2.18202  1_565   S
    N3     O98       3.52867      .   S
    Zr95   O99       1.92709      .   S
    N15    O99       3.22305  1_545   S
    Zr95   O100      2.18199  1_455   S
    N14    O100      3.52890      .   S
    Zr95   O101      1.92607      .   S
    N13    O101      3.22191  1_655   S
    Zr95   O102      2.59441      .   S
    N23    O102      3.72580  1_556   S
    Zr95   O103      2.59325      .   S
    N19    O103      3.72458      .   S
