# CIF file generated by openbabel 2.4.90, see http://openbabel.sf.net
data_I
_chemical_name_common ''
_cell_length_a 13.217
_cell_length_b 14.829
_cell_length_c 21.942
_cell_angle_alpha 89.925
_cell_angle_beta 90.037
_cell_angle_gamma 90.032
_space_group_name_H-M_alt 'P 1'
_space_group_name_Hall 'P 1'
loop_
    _symmetry_equiv_pos_as_xyz
    x,y,z
loop_
    _atom_site_label
    _atom_site_type_symbol
    _atom_site_fract_x
    _atom_site_fract_y
    _atom_site_fract_z
    _atom_site_occupancy
    H0      H    0.09412   0.39708   0.71693   1.000
    H1      H    0.58999   0.39646   0.71390   1.000
    H2      H    0.45459   0.30136   0.87564   1.000
    H3      H    0.95399   0.29977   0.87657   1.000
    H4      H    0.08799   0.16942   0.83422   1.000
    H5      H    0.59095   0.17217   0.83420   1.000
    H6      H    0.17956   0.24426   0.68033   1.000
    H7      H    0.67996   0.24580   0.67908   1.000
    H8      H    0.17997   0.15267   0.73213   1.000
    H9      H    0.68042   0.15415   0.73082   1.000
    H10     H    0.31269   0.32304   0.74306   1.000
    H11     H    0.81246   0.32498   0.74200   1.000
    H12     H    0.30734   0.23730   0.79818   1.000
    H13     H    0.80668   0.23964   0.79739   1.000
    H14     H    0.40569   0.09039   0.77886   1.000
    H15     H    0.90203   0.09059   0.77774   1.000
    H16     H    0.39010   0.27996   0.63432   1.000
    H17     H    0.89391   0.28306   0.63476   1.000
    H18     H    0.03072   0.14537   0.60605   1.000
    H19     H    0.52867   0.14379   0.60546   1.000
    H20     H    0.03487   0.48259   0.14156   1.000
    H21     H    0.53651   0.48151   0.14145   1.000
    H22     H    0.47032   0.57060   0.10662   1.000
    H23     H    0.96808   0.57115   0.10651   1.000
    H24     H    0.42156   0.37024   0.08600   1.000
    H25     H    0.92127   0.37043   0.08587   1.000
    H26     H    0.35604   0.46186   0.05369   1.000
    H27     H    0.85545   0.46159   0.05319   1.000
    H28     H    0.01797   0.50937   0.00020   1.000
    H29     H    0.51840   0.50876   0.00020   1.000
    H30     H    0.47186   0.40251   0.97836   1.000
    H31     H    0.97249   0.40276   0.97841   1.000
    H32     H    0.14953   0.43799   0.06633   1.000
    H33     H    0.64975   0.43638   0.06591   1.000
    H34     H    0.09324   0.33122   0.05572   1.000
    H35     H    0.59277   0.32992   0.05510   1.000
    H36     H    0.13906   0.33337   0.94535   1.000
    H37     H    0.63824   0.33237   0.94470   1.000
    H38     H    0.24503   0.34173   0.99335   1.000
    H39     H    0.74461   0.34082   0.99243   1.000
    H40     H    0.14518   0.49888   0.92419   1.000
    H41     H    0.64379   0.49752   0.92333   1.000
    H42     H    0.24621   0.51237   0.97542   1.000
    H43     H    0.74392   0.51195   0.97505   1.000
    H44     H    0.16009   0.60392   0.21440   1.000
    H45     H    0.65914   0.60490   0.21445   1.000
    H46     H    0.29557   0.69877   0.37609   1.000
    H47     H    0.79451   0.69844   0.37652   1.000
    H48     H    0.15901   0.82791   0.33452   1.000
    H49     H    0.65905   0.82848   0.33498   1.000
    H50     H    0.07035   0.75473   0.17930   1.000
    H51     H    0.57119   0.75750   0.17944   1.000
    H52     H    0.07019   0.84639   0.23094   1.000
    H53     H    0.56873   0.84749   0.23231   1.000
    H54     H    0.43852   0.67517   0.24040   1.000
    H55     H    0.93714   0.67622   0.24212   1.000
    H56     H    0.44210   0.75905   0.29678   1.000
    H57     H    0.94312   0.76166   0.29727   1.000
    H58     H    0.34545   0.90804   0.27758   1.000
    H59     H    0.84458   0.90866   0.27834   1.000
    H60     H    0.35882   0.71886   0.13306   1.000
    H61     H    0.85980   0.72042   0.13334   1.000
    H62     H    0.22147   0.85626   0.10422   1.000
    H63     H    0.72125   0.85693   0.10480   1.000
    H64     H    0.21057   0.51934   0.64192   1.000
    H65     H    0.71638   0.51781   0.64266   1.000
    H66     H    0.27647   0.42998   0.60746   1.000
    H67     H    0.78239   0.42849   0.60818   1.000
    H68     H    0.32614   0.63015   0.58643   1.000
    H69     H    0.83055   0.62871   0.58612   1.000
    H70     H    0.39152   0.53828   0.55453   1.000
    H71     H    0.89552   0.53683   0.55399   1.000
    H72     H    0.22929   0.49163   0.50082   1.000
    H73     H    0.73258   0.48947   0.50140   1.000
    H74     H    0.27621   0.59774   0.47870   1.000
    H75     H    0.77837   0.59578   0.47900   1.000
    H76     H    0.09797   0.56460   0.56610   1.000
    H77     H    0.60152   0.56155   0.56720   1.000
    H78     H    0.15506   0.67092   0.55476   1.000
    H79     H    0.65828   0.66811   0.55628   1.000
    H80     H    0.10982   0.66762   0.44439   1.000
    H81     H    0.61215   0.66588   0.44595   1.000
    H82     H    0.00333   0.65955   0.49192   1.000
    H83     H    0.50630   0.65809   0.49398   1.000
    H84     H    0.10443   0.50208   0.42411   1.000
    H85     H    0.60503   0.50010   0.42542   1.000
    H86     H    0.00323   0.48855   0.47516   1.000
    H87     H    0.50358   0.48762   0.47640   1.000
    H88     H    0.41135   0.89536   0.78556   1.000
    H89     H    0.90811   0.89527   0.78490   1.000
    H90     H    0.04518   0.80106   0.62368   1.000
    H91     H    0.54459   0.80169   0.62303   1.000
    C92     C    0.98215   0.15461   0.64532   1.000
    C93     C    0.46210   0.50050   0.12319   1.000
    H94     H    0.40803   0.67240   0.66452   1.000
    H95     H    0.91022   0.67061   0.66534   1.000
    H96     H    0.32174   0.74371   0.82034   1.000
    H97     H    0.82137   0.74138   0.82027   1.000
    H98     H    0.31900   0.65343   0.76770   1.000
    H99     H    0.81830   0.65200   0.76696   1.000
    H100    H    0.18866   0.82554   0.75942   1.000
    H101    H    0.68868   0.82471   0.75998   1.000
    H102    H    0.19226   0.74173   0.70305   1.000
    H103    H    0.69201   0.74193   0.70292   1.000
    H104    H    0.09668   0.59197   0.72200   1.000
    H105    H    0.59362   0.59357   0.72037   1.000
    H106    H    0.10836   0.78216   0.86647   1.000
    H107    H    0.61010   0.77835   0.86730   1.000
    H108    H    0.47125   0.64129   0.89456   1.000
    H109    H    0.97133   0.64447   0.89529   1.000
    H110    H    0.46381   0.98101   0.35766   1.000
    H111    H    0.96561   0.98055   0.35740   1.000
    H112    H    0.03185   0.07016   0.39154   1.000
    H113    H    0.52887   0.07160   0.39130   1.000
    H114    H    0.07973   0.87005   0.41400   1.000
    H115    H    0.57957   0.87226   0.41478   1.000
    H116    H    0.14581   0.96196   0.44546   1.000
    H117    H    0.64405   0.96522   0.44599   1.000
    H118    H    0.48157   0.00000   0.49882   1.000
    H119    H    0.98434   0.00000   0.49886   1.000
    H120    H    0.02917   0.90352   0.52109   1.000
    H121    H    0.52787   0.90621   0.52166   1.000
    C122    C    0.20204   0.75339   0.75199   1.000
    C123    C    0.70174   0.75264   0.75197   1.000
    C124    C    0.08212   0.62346   0.76612   1.000
    C125    C    0.58009   0.62365   0.76457   1.000
    C126    C    0.08661   0.72161   0.84221   1.000
    H127    H    0.35010   0.93931   0.43386   1.000
    H128    H    0.85149   0.93950   0.43376   1.000
    H129    H    0.40730   0.83299   0.44467   1.000
    H130    H    0.90726   0.83247   0.44402   1.000
    H131    H    0.36234   0.83508   0.55509   1.000
    H132    H    0.86279   0.83405   0.55454   1.000
    H133    H    0.25595   0.84261   0.50740   1.000
    H134    H    0.75635   0.84308   0.50701   1.000
    H135    H    0.35479   0.00000   0.57620   1.000
    H136    H    0.85737   0.99925   0.57640   1.000
    H137    H    0.25393   0.00000   0.52488   1.000
    H138    H    0.75652   0.00000   0.52517   1.000
    H139    H    0.34157   0.10412   0.28372   1.000
    H140    H    0.84044   0.10356   0.28448   1.000
    H141    H    0.20297   0.19935   0.12295   1.000
    H142    H    0.70436   0.19961   0.12317   1.000
    H143    H    0.33806   0.32960   0.16444   1.000
    H144    H    0.84021   0.32893   0.16510   1.000
    H145    H    0.42825   0.25744   0.31916   1.000
    H146    H    0.92919   0.25492   0.32009   1.000
    H147    H    0.43046   0.34757   0.26624   1.000
    H148    H    0.92982   0.34659   0.26837   1.000
    H149    H    0.06250   0.17627   0.25750   1.000
    H150    H    0.56090   0.17556   0.25795   1.000
    H151    H    0.05685   0.26166   0.20228   1.000
    H152    H    0.55716   0.25981   0.20175   1.000
    H153    H    0.15487   0.40906   0.22124   1.000
    H154    H    0.65439   0.40831   0.22077   1.000
    H155    H    0.14080   0.21984   0.36603   1.000
    H156    H    0.64002   0.21923   0.36564   1.000
    H157    H    0.27958   0.35629   0.39435   1.000
    H158    H    0.77795   0.35627   0.39427   1.000
    H159    H    0.28366   0.01686   0.85873   1.000
    H160    H    0.78566   0.01740   0.85902   1.000
    H161    H    0.21607   0.92890   0.89400   1.000
    H162    H    0.71723   0.93044   0.89487   1.000
    H163    H    0.17008   0.12993   0.91362   1.000
    H164    H    0.67270   0.13211   0.91259   1.000
    H165    H    0.10404   0.03914   0.94666   1.000
    H166    H    0.60507   0.04243   0.94580   1.000
    H167    H    0.26664   0.99177   0.99981   1.000
    H168    H    0.76657   0.99460   0.00000   1.000
    H169    H    0.22109   0.09839   0.02136   1.000
    H170    H    0.72130   0.10176   0.02093   1.000
    H171    H    0.39785   0.06323   0.93337   1.000
    H172    H    0.89888   0.06497   0.93383   1.000
    H173    H    0.34174   0.16997   0.94420   1.000
    H174    H    0.84360   0.17208   0.94457   1.000
    H175    H    0.38814   0.16729   0.05456   1.000
    H176    H    0.88923   0.16890   0.05510   1.000
    H177    H    0.49390   0.15902   0.00648   1.000
    H178    H    0.99521   0.15999   0.00720   1.000
    H179    H    0.39367   0.00155   0.07516   1.000
    H180    H    0.89305   0.00336   0.07567   1.000
    H181    H    0.49465   0.98834   0.02395   1.000
    H182    H    0.99389   0.98912   0.02441   1.000
    C183    C    0.07549   0.35424   0.75536   1.000
    C184    C    0.57303   0.35442   0.75305   1.000
    C185    C    0.50568   0.30226   0.83710   1.000
    C186    C    0.00000   0.30091   0.83830   1.000
    C187    C    0.07146   0.23659   0.81783   1.000
    C188    C    0.57253   0.23852   0.81703   1.000
    C189    C    0.19143   0.22572   0.72824   1.000
    C190    C    0.69153   0.22725   0.72702   1.000
    C191    C    0.29834   0.25079   0.74938   1.000
    C192    C    0.79814   0.25274   0.74851   1.000
    C193    C    0.41928   0.12186   0.73500   1.000
    C194    C    0.91751   0.12267   0.73437   1.000
    C195    C    0.41285   0.21973   0.65869   1.000
    C196    C    0.91487   0.22202   0.65880   1.000
    C197    C    0.48100   0.15304   0.64513   1.000
    C198    C    0.96043   0.50102   0.12312   1.000
    C199    C    0.43096   0.44015   0.06974   1.000
    C200    C    0.93034   0.44038   0.06959   1.000
    C201    C    0.50651   0.43925   0.01676   1.000
    C202    C    0.00000   0.43983   0.01687   1.000
    C203    C    0.10844   0.39626   0.03286   1.000
    C204    C    0.60823   0.39503   0.03241   1.000
    C205    C    0.17722   0.37847   0.97789   1.000
    C206    C    0.67656   0.37745   0.97724   1.000
    C207    C    0.21088   0.46366   0.94409   1.000
    C208    C    0.70961   0.46289   0.94356   1.000
    C209    C    0.17702   0.64587   0.25350   1.000
    C210    C    0.67621   0.64665   0.25363   1.000
    C211    C    0.24446   0.69792   0.33750   1.000
    C212    C    0.74357   0.69797   0.33787   1.000
    C213    C    0.17750   0.76164   0.31738   1.000
    C214    C    0.67717   0.76216   0.31775   1.000
    C215    C    0.05869   0.77333   0.22718   1.000
    C216    C    0.55850   0.77442   0.22752   1.000
    C217    C    0.45178   0.74735   0.24785   1.000
    C218    C    0.95181   0.74841   0.24846   1.000
    C219    C    0.33135   0.87679   0.23380   1.000
    C220    C    0.83081   0.87759   0.23440   1.000
    C221    C    0.33669   0.77916   0.15743   1.000
    C222    C    0.83710   0.78041   0.15787   1.000
    C223    C    0.26916   0.84643   0.14388   1.000
    C224    C    0.76896   0.84725   0.14447   1.000
    C225    C    0.28497   0.50006   0.62389   1.000
    C226    C    0.79064   0.49877   0.62429   1.000
    C227    C    0.31659   0.56022   0.57035   1.000
    C228    C    0.82087   0.55865   0.57033   1.000
    C229    C    0.24127   0.56117   0.51718   1.000
    C230    C    0.74442   0.55907   0.51771   1.000
    C231    C    0.13958   0.60562   0.53243   1.000
    C232    C    0.64272   0.60307   0.53361   1.000
    C233    C    0.07140   0.62278   0.47703   1.000
    C234    C    0.57385   0.62099   0.47861   1.000
    C235    C    0.03841   0.53716   0.44364   1.000
    C236    C    0.53958   0.53593   0.44501   1.000
    C237    C    0.42756   0.85371   0.74622   1.000
    C238    C    0.92566   0.85328   0.74594   1.000
    C239    C    0.99389   0.80156   0.66212   1.000
    C240    C    0.49387   0.80230   0.66170   1.000
    C241    C    0.42691   0.73851   0.68185   1.000
    C242    C    0.92774   0.73720   0.68231   1.000
    C243    C    0.30885   0.72652   0.77232   1.000
    C244    C    0.80840   0.72504   0.77210   1.000
    C245    C    0.58701   0.71901   0.84219   1.000
    C246    C    0.01922   0.65418   0.85574   1.000
    C247    C    0.51879   0.65193   0.85490   1.000
    C248    C    0.03997   0.99983   0.37556   1.000
    C249    C    0.53796   0.00000   0.37570   1.000
    C250    C    0.07076   0.94028   0.42959   1.000
    C251    C    0.56941   0.94251   0.43007   1.000
    C252    C    0.99513   0.94054   0.48256   1.000
    C253    C    0.49349   0.94240   0.48289   1.000
    C254    C    0.39178   0.89800   0.46735   1.000
    C255    C    0.89274   0.89743   0.46701   1.000
    C256    C    0.32359   0.87988   0.52255   1.000
    C257    C    0.82451   0.87952   0.52220   1.000
    C258    C    0.28946   0.96479   0.55627   1.000
    C259    C    0.79153   0.96447   0.55632   1.000
    C260    C    0.32357   0.14638   0.24488   1.000
    C261    C    0.82328   0.14587   0.24553   1.000
    C262    C    0.25447   0.19859   0.16133   1.000
    C263    C    0.75548   0.19852   0.16174   1.000
    C264    C    0.32080   0.26287   0.18139   1.000
    C265    C    0.82216   0.26235   0.18204   1.000
    C266    C    0.44078   0.27452   0.27100   1.000
    C267    C    0.94112   0.27352   0.27220   1.000
    C268    C    0.04802   0.24847   0.25112   1.000
    C269    C    0.54751   0.24776   0.25067   1.000
    C270    C    0.16899   0.37772   0.26503   1.000
    C271    C    0.66828   0.37705   0.26462   1.000
    C272    C    0.16329   0.28003   0.34151   1.000
    C273    C    0.66245   0.27947   0.34116   1.000
    C274    C    0.23157   0.34683   0.35480   1.000
    C275    C    0.73026   0.34657   0.35461   1.000
    C276    C    0.20900   0.99891   0.87706   1.000
    C277    C    0.71074   0.00011   0.87725   1.000
    C278    C    0.17898   0.06016   0.93025   1.000
    C279    C    0.68052   0.06254   0.92979   1.000
    C280    C    0.25510   0.06117   0.98301   1.000
    C281    C    0.75573   0.06386   0.98302   1.000
    C282    C    0.35697   0.10484   0.96695   1.000
    C283    C    0.85811   0.10684   0.96731   1.000
    C284    C    0.42603   0.12231   0.02189   1.000
    C285    C    0.92691   0.12375   0.02245   1.000
    C286    C    0.45946   0.03685   0.05540   1.000
    C287    C    0.95934   0.03791   0.05590   1.000
    N288    N    0.00846   0.37393   0.79884   1.000
    N289    N    0.50626   0.37417   0.79666   1.000
    N290    N    0.11474   0.27080   0.76510   1.000
    N291    N    0.61429   0.27198   0.76364   1.000
    N292    N    0.37444   0.19931   0.71592   1.000
    N293    N    0.87459   0.20110   0.71548   1.000
    N294    N    0.48472   0.09253   0.69333   1.000
    N295    N    0.98350   0.09317   0.69303   1.000
    N296    N    0.24389   0.62606   0.29714   1.000
    N297    N    0.74266   0.62630   0.29736   1.000
    N298    N    0.13568   0.72827   0.26401   1.000
    N299    N    0.63547   0.72925   0.26421   1.000
    N300    N    0.37537   0.79905   0.21467   1.000
    N301    N    0.87563   0.80029   0.21516   1.000
    N302    N    0.26617   0.90679   0.19207   1.000
    N303    N    0.76532   0.90733   0.19281   1.000
    N304    N    0.49397   0.87379   0.70242   1.000
    N305    N    0.99232   0.87359   0.70234   1.000
    N306    N    0.38583   0.77149   0.73550   1.000
    N307    N    0.88544   0.77037   0.73556   1.000
    N308    N    0.12576   0.70149   0.78515   1.000
    N309    N    0.62513   0.70047   0.78463   1.000
    N310    N    0.01673   0.59349   0.80772   1.000
    N311    N    0.51478   0.59300   0.80599   1.000
    N312    N    0.25650   0.12630   0.20145   1.000
    N313    N    0.75645   0.12622   0.20186   1.000
    N314    N    0.36365   0.22937   0.23448   1.000
    N315    N    0.86419   0.22860   0.23529   1.000
    N316    N    0.12428   0.30026   0.28437   1.000
    N317    N    0.62387   0.29943   0.28387   1.000
    N318    N    0.23485   0.40722   0.30653   1.000
    N319    N    0.73358   0.40690   0.30630   1.000
loop_
    _geom_bond_atom_site_label_1
    _geom_bond_atom_site_label_2
    _geom_bond_distance
    _geom_bond_site_symmetry_2
    _ccdc_geom_bond_type
    H168   C281      1.10142  1_564   S
    H28    C202      1.11907      .   S
    H29    C201      1.10363      .   S
    H177   C284      1.10219      .   S
    H178   C285      1.10232      .   S
    C201   C204      1.53465      .   S
    C201   C199      1.53305      .   S
    C201   H30       1.10316  1_554   S
    C202   C203      1.61071      .   S
    C202   C200      1.47892  1_455   S
    C202   H31       1.07106  1_454   S
    H170   C281      1.10310  1_554   S
    H169   C280      1.10304  1_554   S
    C284   H175      1.10078      .   S
    C284   C286      1.52961      .   S
    C284   C282      1.53377  1_554   S
    C285   H176      1.10073      .   S
    C285   C287      1.52985      .   S
    C285   C283      1.53378  1_554   S
    H181   C286      1.10096  1_565   S
    H182   C287      1.10069  1_565   S
    C204   H35       1.10480      .   S
    C204   H33       1.10351      .   S
    C204   C206      1.53349  1_554   S
    C203   H34       1.10486      .   S
    C203   H32       1.10347      .   S
    C203   C205      1.53407  1_554   S
    H27    C200      1.09911      .   S
    H26    C199      1.09900      .   S
    C286   H179      1.10338      .   S
    C287   H180      1.10346      .   S
    C200   H25       1.10306      .   S
    C200   C198      1.53237      .   S
    C199   H24       1.10297      .   S
    C199   C93       1.53213      .   S
    H62    C223      1.08389      .   S
    H63    C224      1.08390      .   S
    H23    C198      1.10613      .   S
    H22    C93       1.10610      .   S
    H141   C262      1.08259      .   S
    C198   H20       1.09817  1_655   S
    H142   C263      1.08267      .   S
    C93    H21       1.09836      .   S
    H60    C221      1.08305      .   S
    H61    C222      1.08299      .   S
    C223   C221      1.37108      .   S
    C223   N302      1.38682      .   S
    C224   C222      1.37109      .   S
    C224   N303      1.38694      .   S
    C221   N300      1.38773      .   S
    C222   N301      1.38791      .   S
    C262   C264      1.36768      .   S
    C262   N312      1.38639      .   S
    C263   C265      1.36768      .   S
    C263   N313      1.38639      .   S
    H143   C264      1.08107      .   S
    H144   C265      1.08112      .   S
    H50    C215      1.09755      .   S
    H51    C216      1.09774      .   S
    C264   N314      1.38653      .   S
    C265   N315      1.38647      .   S
    N302   C219      1.33296      .   S
    N303   C220      1.33223      .   S
    N312   C260      1.33494      .   S
    H152   C269      1.09545      .   S
    N313   C261      1.33519      .   S
    H151   C268      1.09542      .   S
    H44    C209      1.08361      .   S
    H45    C210      1.08367      .   S
    N300   C219      1.35873      .   S
    N300   C217      1.46149      .   S
    N301   C220      1.35847      .   S
    N301   C218      1.46217      .   S
    H154   C271      1.08306      .   S
    H153   C270      1.08296      .   S
    C215   H52       1.09704      .   S
    C215   C218      1.53297  1_455   S
    C215   N298      1.46062      .   S
    C216   H53       1.09699      .   S
    C216   C217      1.53274      .   S
    C216   N299      1.45948      .   S
    C219   H58       1.08313      .   S
    C220   H59       1.08433      .   S
    N314   C260      1.35858      .   S
    N314   C266      1.45923      .   S
    N315   C261      1.35882      .   S
    N315   C267      1.46046      .   S
    H54    C217      1.09703      .   S
    H55    C218      1.09679      .   S
    C260   H139      1.08352      .   S
    C261   H140      1.08350      .   S
    C217   H56       1.09534      .   S
    C218   H57       1.09524      .   S
    C269   H150      1.09685      .   S
    C269   C266      1.53235      .   S
    C269   N317      1.46154      .   S
    C268   H149      1.09654      .   S
    C268   C267      1.53297  1_455   S
    C268   N316      1.46217      .   S
    C209   N298      1.35878      .   S
    C209   N296      1.33522      .   S
    C210   N299      1.35858      .   S
    C210   N297      1.33479      .   S
    N298   C213      1.38642      .   S
    N299   C214      1.38649      .   S
    C271   N317      1.35864      .   S
    C271   N319      1.33298      .   S
    C270   N316      1.35894      .   S
    C270   N318      1.33338      .   S
    H147   C266      1.09679      .   S
    H148   C267      1.09703      .   S
    C266   H145      1.09896      .   S
    C267   H146      1.09751      .   S
    N317   C273      1.38785      .   S
    N316   C272      1.38785      .   S
    N296   C211      1.38641      .   S
    N297   C212      1.38653      .   S
    N319   C275      1.38688      .   S
    N318   C274      1.38683      .   S
    C213   H48       1.08079      .   S
    C213   C211      1.36763      .   S
    C214   H49       1.08106      .   S
    C214   C212      1.36766      .   S
    C211   H46       1.08292      .   S
    C212   H47       1.08256      .   S
    C273   C275      1.37107      .   S
    C273   H156      1.08302      .   S
    C272   C274      1.37112      .   S
    C272   H155      1.08311      .   S
    C275   H158      1.08387      .   S
    C274   H157      1.08397      .   S
    H111   C248      1.09810  1_655   S
    H110   C249      1.09365  1_565   S
    C248   H112      1.10609  1_565   S
    C248   C250      1.53224      .   S
    C249   H113      1.12246      .   S
    C249   C251      1.52310  1_545   S
    H114   C250      1.10314      .   S
    H115   C251      1.10317      .   S
    H84    C235      1.10318      .   S
    H85    C236      1.10322      .   S
    C250   H116      1.09907      .   S
    C250   C252      1.53353  1_455   S
    C251   H117      1.09911      .   S
    C251   C253      1.53351      .   S
    H128   C255      1.10342      .   S
    H127   C254      1.10337      .   S
    C235   H86       1.10131      .   S
    C235   C233      1.52987      .   S
    H130   C255      1.10483      .   S
    H80    C233      1.10082      .   S
    H129   C254      1.10478      .   S
    C236   H87       1.10130      .   S
    C236   C234      1.53003      .   S
    H81    C234      1.10084      .   S
    C255   C252      1.53472      .   S
    C255   C257      1.53314      .   S
    C254   C253      1.53496      .   S
    C254   C256      1.53354      .   S
    C233   H82       1.10219      .   S
    C233   C231      1.53377      .   S
    C234   H83       1.10219      .   S
    C234   C232      1.53415      .   S
    H74    C229      1.10418      .   S
    H75    C230      1.10368      .   S
    C252   H119      0.96268  1_565   S
    C252   H120      1.10326  1_655   S
    C253   H118      0.93674  1_565   S
    C253   H121      1.10307      .   S
    H72    C229      1.10357      .   S
    H73    C230      1.10386      .   S
    H134   C257      1.10189      .   S
    H133   C256      1.10216      .   S
    C229   C231      1.53466      .   S
    C229   C227      1.53319      .   S
    C230   C232      1.53510      .   S
    C230   C228      1.53380      .   S
    C257   H132      1.10123      .   S
    C257   C259      1.53004      .   S
    C256   H131      1.10093      .   S
    C256   C258      1.52969      .   S
    H137   C258      0.98304  1_545   S
    H138   C259      0.97865  1_545   S
    C231   H78       1.10481      .   S
    C231   H76       1.10324      .   S
    C232   H79       1.10485      .   S
    C232   H77       1.10358      .   S
    H71    C228      1.09902      .   S
    H70    C227      1.09919      .   S
    C258   H135      1.09960  1_565   S
    C259   H136      1.10319      .   S
    C228   H69       1.10297      .   S
    C228   C226      1.53212      .   S
    C227   H68       1.10298      .   S
    C227   C225      1.53231      .   S
    H19    C197      1.08378      .   S
    H18    C92       1.08370  1_455   S
    H66    C225      1.10612      .   S
    H67    C226      1.10618      .   S
    H91    C240      1.08175      .   S
    H90    C239      1.08249  1_455   S
    C225   H64       1.09841      .   S
    C226   H65       1.09842      .   S
    H16    C195      1.08301      .   S
    H17    C196      1.08302      .   S
    C197   C195      1.37111      .   S
    C197   N294      1.38695      .   S
    C92    C196      1.37105      .   S
    C92    N295      1.38700      .   S
    C195   N292      1.38781      .   S
    C196   N293      1.38782      .   S
    C240   C241      1.36821      .   S
    C240   N304      1.38725      .   S
    C239   C242      1.36737      .   S
    C239   N305      1.38664      .   S
    H94    C241      1.08108      .   S
    H95    C242      1.08083      .   S
    H7     C190      1.09753      .   S
    H6     C189      1.09743      .   S
    C241   N306      1.38645      .   S
    C242   N307      1.38650      .   S
    N295   C194      1.33314      .   S
    N294   C193      1.33254      .   S
    N305   C238      1.33506      .   S
    N304   C237      1.33520      .   S
    H103   C123      1.09562      .   S
    H102   C122      1.09546      .   S
    H1     C184      1.08416      .   S
    N293   C194      1.35851      .   S
    N293   C192      1.46146      .   S
    N292   C193      1.35826      .   S
    N292   C191      1.46178      .   S
    H0     C183      1.08343      .   S
    H105   C125      1.08307      .   S
    H104   C124      1.09262      .   S
    C190   H9        1.09698      .   S
    C190   C192      1.53285      .   S
    C190   N291      1.45986      .   S
    C189   H8        1.09693      .   S
    C189   C191      1.53257      .   S
    C189   N290      1.46000      .   S
    C194   H15       1.08291      .   S
    C193   H14       1.08398      .   S
    N306   C237      1.35865      .   S
    N306   C243      1.45998      .   S
    N307   C238      1.35856      .   S
    N307   C244      1.45960      .   S
    H11    C192      1.09684      .   S
    H10    C191      1.09667      .   S
    C238   H89       1.08359      .   S
    C237   H88       1.08362      .   S
    C192   H13       1.09550      .   S
    C191   H12       1.09546      .   S
    C123   H101      1.09701      .   S
    C123   C244      1.53277      .   S
    C123   N309      1.46152      .   S
    C122   H100      1.09695      .   S
    C122   C243      1.53292      .   S
    C122   N308      1.46173      .   S
    C184   N291      1.35861      .   S
    C184   N289      1.33500      .   S
    C183   N290      1.35860      .   S
    C183   N288      1.33502      .   S
    N291   C188      1.38642      .   S
    C125   N309      1.35872      .   S
    C125   N311      1.33304      .   S
    N290   C187      1.38645      .   S
    C124   N308      1.35872      .   S
    C124   N310      1.33305      .   S
    H99    C244      1.09705      .   S
    H98    C243      1.09702      .   S
    C244   H97       1.09801      .   S
    C243   H96       1.09755      .   S
    N309   C245      1.38791      .   S
    N308   C126      1.38791      .   S
    N289   C185      1.38643      .   S
    N288   C186      1.39001      .   S
    N311   C247      1.38581      .   S
    N310   C246      1.38691      .   S
    C188   H5        1.08087      .   S
    C188   C185      1.36767      .   S
    C187   H4        1.08095      .   S
    C187   C186      1.41635      .   S
    C185   H2        1.08261      .   S
    C186   H3        1.03726  1_455   S
    C245   C247      1.37067      .   S
    C245   H107      1.08248      .   S
    C126   C246      1.37106      .   S
    C126   H106      1.08306      .   S
    C247   H108      1.08502      .   S
    C246   H109      1.08386  1_455   S
    H159   C276      1.09834  1_545   S
    H160   C277      1.09828      .   S
    C276   H161      1.10611      .   S
    C276   C278      1.53242  1_565   S
    C277   H162      1.10601  1_545   S
    C277   C279      1.53281      .   S
    H164   C279      1.10298      .   S
    H163   C278      1.10296      .   S
    H41    C208      1.10314      .   S
    H40    C207      1.10319      .   S
    C279   H166      1.09842      .   S
    C279   C281      1.53337      .   S
    C278   H165      1.09895      .   S
    C278   C280      1.53330      .   S
    H171   C282      1.10351      .   S
    H172   C283      1.10346      .   S
    C208   H43       1.10133      .   S
    C208   C206      1.52954      .   S
    C207   H42       1.10131      .   S
    C207   C205      1.53004      .   S
    H173   C282      1.10516      .   S
    H174   C283      1.10476      .   S
    H37    C206      1.10160      .   S
    H36    C205      1.10093      .   S
    C282   C280      1.53478      .   S
    C283   C281      1.53470      .   S
    C206   H39       1.10213      .   S
    C205   H38       1.10221      .   S
    C280   H167      1.10342  1_545   S
