# CIF file generated by openbabel 2.4.90, see http://openbabel.sf.net
data_I
_chemical_name_common ''
_cell_length_a 13.217
_cell_length_b 14.829
_cell_length_c 21.942
_cell_angle_alpha 89.925
_cell_angle_beta 90.037
_cell_angle_gamma 90.032
_space_group_name_H-M_alt 'P 1'
_space_group_name_Hall 'P 1'
loop_
    _symmetry_equiv_pos_as_xyz
    x,y,z
loop_
    _atom_site_label
    _atom_site_type_symbol
    _atom_site_fract_x
    _atom_site_fract_y
    _atom_site_fract_z
    _atom_site_occupancy
    Zn0     Zn   0.91974   0.48460   0.80251   1.000
    Zn1     Zn   0.33317   0.51550   0.30120   1.000
    Zn2     Zn   0.83114   0.51545   0.30104   1.000
    Zn3     Zn   0.08054   0.98458   0.69869   1.000
    Zn4     Zn   0.58280   0.98453   0.69875   1.000
    Zn5     Zn   0.16854   0.01516   0.19747   1.000
    Zn6     Zn   0.66712   0.01558   0.19784   1.000
    Zn7     Zn   0.41713   0.48460   0.80045   1.000
    C8      C    0.38582   0.50267   0.17565   1.000
    C9      C    0.88391   0.50276   0.17550   1.000
    C10     C    0.28359   0.44626   0.89158   1.000
    C11     C    0.78336   0.44621   0.89154   1.000
    C12     C    0.36099   0.49758   0.67652   1.000
    C13     C    0.86724   0.49716   0.67671   1.000
    C14     C    0.46732   0.55378   0.39225   1.000
    C15     C    0.96587   0.55377   0.39090   1.000
    C16     C    0.11632   0.00000   0.32309   1.000
    C17     C    0.61423   0.00000   0.32325   1.000
    C18     C    0.21638   0.94668   0.60852   1.000
    C19     C    0.71841   0.94653   0.60857   1.000
    C20     C    0.13266   0.99712   0.82454   1.000
    C21     C    0.63470   0.99757   0.82459   1.000
    C22     C    0.03218   0.05407   0.10855   1.000
    C23     C    0.53222   0.05377   0.10800   1.000
    O24     O    0.42671   0.50790   0.22974   1.000
    O25     O    0.92469   0.50786   0.22960   1.000
    O26     O    0.29279   0.50013   0.16550   1.000
    O27     O    0.79088   0.50010   0.16539   1.000
    O28     O    0.33766   0.51560   0.87451   1.000
    O29     O    0.83633   0.51626   0.87460   1.000
    O30     O    0.28896   0.37067   0.86671   1.000
    O31     O    0.79085   0.37056   0.86695   1.000
    O32     O    0.32013   0.49219   0.73057   1.000
    O33     O    0.82647   0.49210   0.73078   1.000
    O34     O    0.45412   0.50003   0.66674   1.000
    O35     O    0.96025   0.49995   0.66667   1.000
    O36     O    0.41381   0.48439   0.37460   1.000
    O37     O    0.91212   0.48408   0.37416   1.000
    O38     O    0.46179   0.62970   0.36779   1.000
    O39     O    0.96012   0.62908   0.36555   1.000
    O40     O    0.07536   0.00000   0.26896   1.000
    O41     O    0.57325   0.00000   0.26910   1.000
    O42     O    0.20936   0.00000   0.33320   1.000
    O43     O    0.70727   0.00000   0.33322   1.000
    O44     O    0.16404   0.01636   0.62660   1.000
    O45     O    0.66616   0.01629   0.62668   1.000
    O46     O    0.20894   0.87024   0.63206   1.000
    O47     O    0.71091   0.87011   0.63215   1.000
    O48     O    0.17356   0.99203   0.77050   1.000
    O49     O    0.67576   0.99216   0.77060   1.000
    O50     O    0.03963   0.99979   0.83450   1.000
    O51     O    0.54162   0.99990   0.83447   1.000
    O52     O    0.08839   0.98507   0.12363   1.000
    O53     O    0.58613   0.98422   0.12480   1.000
    O54     O    0.03583   0.12831   0.13535   1.000
    O55     O    0.53793   0.12914   0.13316   1.000
    Ts56    Ts   0.94932   0.44771   0.80129   1.000
    Ts57    Ts   0.95207   0.52090   0.80425   1.000
    Ts58    Ts   0.30341   0.55235   0.29985   1.000
    Ts59    Ts   0.30040   0.47940   0.30298   1.000
    Ts60    Ts   0.80165   0.55240   0.29981   1.000
    Ts61    Ts   0.79862   0.47926   0.30279   1.000
    Ts62    Ts   0.04819   0.02078   0.69680   1.000
    Ts63    Ts   0.05113   0.94758   0.69991   1.000
    Ts64    Ts   0.55010   0.02053   0.69694   1.000
    Ts65    Ts   0.55319   0.94761   0.69997   1.000
    Ts66    Ts   0.20108   0.97904   0.19567   1.000
    Ts67    Ts   0.19786   0.05221   0.19880   1.000
    Ts68    Ts   0.69985   0.97949   0.19616   1.000
    Ts69    Ts   0.69690   0.05246   0.19918   1.000
    Ts70    Ts   0.44684   0.44779   0.79919   1.000
    Ts71    Ts   0.44968   0.52074   0.80230   1.000
    Og72    Og   0.41125   0.50195   0.15816   1.000
    Og73    Og   0.90941   0.50218   0.15804   1.000
    Og74    Og   0.25935   0.45206   0.90908   1.000
    Og75    Og   0.75878   0.45177   0.90888   1.000
    Og76    Og   0.33565   0.49841   0.65898   1.000
    Og77    Og   0.84171   0.49769   0.65924   1.000
    Og78    Og   0.49141   0.54783   0.40984   1.000
    Og79    Og   0.99005   0.54823   0.40848   1.000
    Og80    Og   0.09087   0.99994   0.34058   1.000
    Og81    Og   0.58881   0.00000   0.34073   1.000
    Og82    Og   0.24074   0.95272   0.59110   1.000
    Og83    Og   0.74279   0.95251   0.59115   1.000
    Og84    Og   0.15811   0.99771   0.84205   1.000
    Og85    Og   0.66005   0.99842   0.84214   1.000
    Og86    Og   0.00790   0.04868   0.09100   1.000
    Og87    Og   0.50797   0.04813   0.09047   1.000
loop_
    _geom_bond_atom_site_label_1
    _geom_bond_atom_site_label_2
    _geom_bond_distance
    _geom_bond_site_symmetry_2
    _ccdc_geom_bond_type
    C23    O53       1.30645  1_545   S
    C23    O55       1.24939      .   S
    C22    O52       1.30674  1_545   S
    C22    O54       1.24980      .   S
    O52    Zn5       1.98637  1_565   S
    O53    Zn6       1.98239  1_565   S
    O27    C9        1.24980      .   S
    O26    C8        1.25000      .   S
    C9     O25       1.30564      .   S
    C8     O24       1.30615      .   S
    Zn5    O40       2.00728      .   S
    Zn6    O41       2.00961      .   S
    O25    Zn2       2.00038      .   S
    O24    Zn1       2.00069      .   S
    O40    C16       1.30492      .   S
    O41    C17       1.30544      .   S
    Zn2    O37       1.98300      .   S
    Zn1    O36       1.98464      .   S
    C16    O42       1.24953      .   S
    C17    O43       1.24892      .   S
    O39    C15       1.24932      .   S
    O38    C14       1.24883      .   S
    O37    C15       1.30664      .   S
    O36    C14       1.30727      .   S
    C18    O44       1.30599  1_565   S
    C18    O46       1.24894      .   S
    C19    O45       1.30662  1_565   S
    C19    O47       1.24894      .   S
    O44    Zn3       1.98543  1_545   S
    O45    Zn4       1.98398  1_545   S
    O35    C13       1.24964      .   S
    O34    C12       1.24999      .   S
    C12    O32       1.30579      .   S
    C13    O33       1.30544      .   S
    Zn3    O48       2.00109      .   S
    Zn4    O49       2.00146      .   S
    O32    Zn7       2.00108      .   S
    O33    Zn0       2.00165      .   S
    O48    C20       1.30575      .   S
    O49    C21       1.30594      .   S
    Zn7    O28       1.98994      .   S
    Zn0    O29       1.98562      .   S
    C20    O50       1.24971      .   S
    C21    O51       1.24981      .   S
    O30    C10       1.24944      .   S
    O31    C11       1.24950      .   S
    O28    C10       1.30646      .   S
    O29    C11       1.30604      .   S
    Zn0    Ts56      0.67309      .   S
    Zn0    Ts57      0.68816      .   S
    Zn1    Ts58      0.67416      .   S
    Zn1    Ts59      0.68944      .   S
    Zn2    Ts60      0.67312      .   S
    Zn2    Ts61      0.68836      .   S
    Zn3    Ts62      0.68759  1_565   S
    Zn3    Ts63      0.67266      .   S
    Zn4    Ts64      0.68809  1_565   S
    Zn4    Ts65      0.67324      .   S
    Zn5    Ts66      0.68838  1_545   S
    Zn5    Ts67      0.67274      .   S
    Zn6    Ts68      0.68934  1_545   S
    Zn6    Ts69      0.67427      .   S
    Zn7    Ts70      0.67324      .   S
    Zn7    Ts71      0.68821      .   S
    C8     Og72      0.51034      .   S
    C9     Og73      0.51057      .   S
    C10    Og74      0.50771      .   S
    C11    Og75      0.50736      .   S
    C12    Og76      0.51021      .   S
    C13    Og77      0.51068      .   S
    C14    Og78      0.50776      .   S
    C15    Og79      0.50743      .   S
    C16    Og80      0.51047  1_545   S
    C17    Og81      0.51013      .   S
    C18    Og82      0.50769      .   S
    C19    Og83      0.50766      .   S
    C20    Og84      0.51046      .   S
    C21    Og85      0.51046      .   S
    C22    Og86      0.50750      .   S
    C23    Og87      0.50759      .   S
