# CIF file generated by openbabel 2.4.90, see http://openbabel.sf.net
data_I
_chemical_name_common ''
_cell_length_a 13.217
_cell_length_b 14.829
_cell_length_c 21.942
_cell_angle_alpha 89.925
_cell_angle_beta 90.037
_cell_angle_gamma 90.032
_space_group_name_H-M_alt 'P 1'
_space_group_name_Hall 'P 1'
loop_
    _symmetry_equiv_pos_as_xyz
    x,y,z
loop_
    _atom_site_label
    _atom_site_type_symbol
    _atom_site_fract_x
    _atom_site_fract_y
    _atom_site_fract_z
    _atom_site_occupancy
    C0      C    0.38582   0.50267   0.17565   1.000
    C1      C    0.88391   0.50276   0.17550   1.000
    C2      C    0.28359   0.44626   0.89158   1.000
    C3      C    0.78336   0.44621   0.89154   1.000
    C4      C    0.36099   0.49758   0.67652   1.000
    C5      C    0.86724   0.49716   0.67671   1.000
    C6      C    0.46732   0.55378   0.39225   1.000
    C7      C    0.96587   0.55377   0.39090   1.000
    C8      C    0.11632   0.00000   0.32309   1.000
    C9      C    0.61423   0.00000   0.32325   1.000
    C10     C    0.21638   0.94668   0.60852   1.000
    C11     C    0.71841   0.94653   0.60857   1.000
    C12     C    0.13266   0.99712   0.82454   1.000
    C13     C    0.63470   0.99757   0.82459   1.000
    C14     C    0.03218   0.05407   0.10855   1.000
    C15     C    0.53222   0.05377   0.10800   1.000
