# CIF file generated by openbabel 2.4.90, see http://openbabel.sf.net
data_I
_chemical_name_common ''
_cell_length_a 15.614
_cell_length_b 17.228
_cell_length_c 18.405
_cell_angle_alpha 89.946
_cell_angle_beta 90.001
_cell_angle_gamma 90.006
_space_group_name_H-M_alt 'P 1'
_space_group_name_Hall 'P 1'
loop_
    _symmetry_equiv_pos_as_xyz
    x,y,z
loop_
    _atom_site_label
    _atom_site_type_symbol
    _atom_site_fract_x
    _atom_site_fract_y
    _atom_site_fract_z
    _atom_site_occupancy
    Zn0     Zn   0.48113   0.67020   0.58724   1.000
    Zn1     Zn   0.06636   0.17651   0.14100   1.000
    Zn2     Zn   0.01884   0.32978   0.08715   1.000
    Zn3     Zn   0.56637   0.32349   0.85893   1.000
    Zn4     Zn   0.51885   0.17021   0.91282   1.000
    Zn5     Zn   0.93363   0.67646   0.35899   1.000
    Zn6     Zn   0.98113   0.82978   0.41274   1.000
    Zn7     Zn   0.56633   0.17648   0.35897   1.000
    Zn8     Zn   0.51884   0.32979   0.41273   1.000
    Zn9     Zn   0.93361   0.82348   0.85894   1.000
    Zn10    Zn   0.98113   0.67020   0.91282   1.000
    Zn11    Zn   0.43361   0.67650   0.14104   1.000
    Zn12    Zn   0.48113   0.82977   0.08716   1.000
    Zn13    Zn   0.06635   0.32352   0.64098   1.000
    Zn14    Zn   0.01885   0.17020   0.58723   1.000
    Zn15    Zn   0.43364   0.82351   0.64100   1.000
    C16     C    0.53131   0.77662   0.49721   1.000
    C17     C    0.54035   0.79968   0.22417   1.000
    C18     C    0.60162   0.03361   0.37943   1.000
    C19     C    0.80863   0.80924   0.37576   1.000
    C20     C    0.96860   0.22332   0.99729   1.000
    O21     O    0.48121   0.18655   0.44402   1.000
    O22     O    0.48500   0.29658   0.50912   1.000
    O23     O    0.50414   0.26156   0.77790   1.000
    O24     O    0.44431   0.15637   0.83137   1.000
    O25     O    0.43412   0.93015   0.67510   1.000
    C26     C    0.95971   0.20025   0.72426   1.000
    C27     C    0.89833   0.96626   0.87968   1.000
    C28     C    0.69134   0.19066   0.87576   1.000
    C29     C    0.46861   0.27667   0.00000   1.000
    C30     C    0.45965   0.29971   0.27570   1.000
    C31     C    0.39838   0.53370   0.12028   1.000
    C32     C    0.19133   0.30935   0.12414   1.000
    C33     C    0.03134   0.72338   0.50277   1.000
    C34     C    0.04034   0.70031   0.77581   1.000
    C35     C    0.10155   0.46641   0.62050   1.000
    C36     C    0.30865   0.69070   0.62425   1.000
    C37     C    0.46867   0.22337   0.50276   1.000
    C38     C    0.45963   0.20031   0.77580   1.000
    C39     C    0.39835   0.96638   0.62054   1.000
    C40     C    0.19134   0.19074   0.62421   1.000
    C41     C    0.03137   0.77667   0.00000   1.000
    C42     C    0.04027   0.79974   0.27571   1.000
    C43     C    0.10165   0.03372   0.12029   1.000
    C44     C    0.30864   0.80932   0.12421   1.000
    C45     C    0.53136   0.72332   0.99731   1.000
    C46     C    0.54033   0.70028   0.72428   1.000
    C47     C    0.60160   0.46628   0.87969   1.000
    C48     C    0.80865   0.69064   0.87583   1.000
    C49     C    0.96863   0.27661   0.49720   1.000
    C50     C    0.95963   0.29967   0.22417   1.000
    C51     C    0.89843   0.53358   0.37943   1.000
    C52     C    0.69133   0.30929   0.37572   1.000
    O53     O    0.51876   0.81344   0.55595   1.000
    O54     O    0.51498   0.70341   0.49085   1.000
    O55     O    0.49584   0.73842   0.22207   1.000
    O56     O    0.55567   0.84362   0.16861   1.000
    O57     O    0.56585   0.06984   0.32480   1.000
    O58     O    0.62917   0.06888   0.43393   1.000
    O59     O    0.86336   0.86021   0.39684   1.000
    O60     O    0.82561   0.73874   0.36229   1.000
    O61     O    0.98114   0.18649   0.05609   1.000
    O62     O    0.98496   0.29653   0.99082   1.000
    O63     O    0.00422   0.26150   0.72208   1.000
    O64     O    0.94432   0.15638   0.66874   1.000
    O65     O    0.93400   0.93022   0.82501   1.000
    O66     O    0.87078   0.93078   0.93412   1.000
    O67     O    0.63658   0.13971   0.89688   1.000
    O68     O    0.67438   0.26119   0.86222   1.000
    O69     O    0.48115   0.31350   0.94387   1.000
    O70     O    0.48497   0.20346   0.00000   1.000
    O71     O    0.50411   0.23843   0.27780   1.000
    O72     O    0.44432   0.34360   0.33122   1.000
    O73     O    0.43402   0.56974   0.17496   1.000
    O74     O    0.37080   0.56919   0.06580   1.000
    O75     O    0.13657   0.36031   0.10307   1.000
    O76     O    0.17436   0.23883   0.13770   1.000
    O77     O    0.01879   0.68655   0.44403   1.000
    O78     O    0.01501   0.79658   0.50913   1.000
    O79     O    0.99583   0.76157   0.77790   1.000
    O80     O    0.05567   0.65637   0.83137   1.000
    O81     O    0.06580   0.43016   0.67510   1.000
    O82     O    0.12912   0.43116   0.56604   1.000
    O83     O    0.36336   0.63975   0.60310   1.000
    O84     O    0.32564   0.76120   0.63773   1.000
    O85     O    0.37080   0.93111   0.56604   1.000
    O86     O    0.13662   0.13978   0.60313   1.000
    O87     O    0.17437   0.26125   0.63760   1.000
    O88     O    0.01883   0.81350   0.94388   1.000
    O89     O    0.01501   0.70345   0.00000   1.000
    O90     O    0.99575   0.73849   0.27789   1.000
    O91     O    0.05566   0.84361   0.33124   1.000
    O92     O    0.06598   0.06976   0.17496   1.000
    O93     O    0.12920   0.06920   0.06586   1.000
    O94     O    0.36340   0.86028   0.10310   1.000
    O95     O    0.32559   0.73880   0.13776   1.000
    O96     O    0.51883   0.68649   0.05610   1.000
    O97     O    0.51501   0.79653   0.99083   1.000
    O98     O    0.49587   0.76156   0.72209   1.000
    O99     O    0.55565   0.65638   0.66875   1.000
    O100    O    0.56595   0.43025   0.82500   1.000
    O101    O    0.62918   0.43079   0.93412   1.000
    O102    O    0.86340   0.63968   0.89690   1.000
    O103    O    0.82561   0.76116   0.86227   1.000
    O104    O    0.98118   0.31344   0.55590   1.000
    O105    O    0.98497   0.20340   0.49085   1.000
    O106    O    0.00414   0.23842   0.22207   1.000
    O107    O    0.94431   0.34361   0.16860   1.000
    O108    O    0.93418   0.56983   0.32487   1.000
    O109    O    0.87086   0.56883   0.43393   1.000
    O110    O    0.63662   0.36024   0.39683   1.000
    O111    O    0.67433   0.23878   0.36224   1.000
    Og112   Og   0.54493   0.79028   0.47570   1.000
    Og113   Og   0.55319   0.80872   0.24819   1.000
    Og114   Og   0.60405   0.00409   0.37730   1.000
    Og115   Og   0.77747   0.81772   0.37382   1.000
    Og116   Og   0.95498   0.20965   0.97580   1.000
    Og117   Og   0.94686   0.19122   0.74830   1.000
    Og118   Og   0.89592   0.99580   0.87757   1.000
    Og119   Og   0.72251   0.18218   0.87384   1.000
    Og120   Og   0.45499   0.29034   0.02237   1.000
    Og121   Og   0.44680   0.30875   0.25166   1.000
    Og122   Og   0.39597   0.50418   0.12238   1.000
    Og123   Og   0.22250   0.31782   0.12603   1.000
    Og124   Og   0.04497   0.70972   0.52428   1.000
    Og125   Og   0.05319   0.69127   0.75179   1.000
    Og126   Og   0.10398   0.49592   0.62265   1.000
    Og127   Og   0.27748   0.68222   0.62620   1.000
    Og128   Og   0.45504   0.20970   0.52424   1.000
    Og129   Og   0.44678   0.19127   0.75178   1.000
    Og130   Og   0.39593   0.99590   0.62268   1.000
    Og131   Og   0.22251   0.18227   0.62616   1.000
    Og132   Og   0.04500   0.79033   0.02238   1.000
    Og133   Og   0.05312   0.80877   0.25167   1.000
    Og134   Og   0.10405   0.00419   0.12240   1.000
    Og135   Og   0.27747   0.81780   0.12613   1.000
    Og136   Og   0.54499   0.70965   0.97583   1.000
    Og137   Og   0.55318   0.69124   0.74832   1.000
    Og138   Og   0.60402   0.49581   0.87759   1.000
    Og139   Og   0.77747   0.68217   0.87392   1.000
    Og140   Og   0.95501   0.29027   0.47569   1.000
    Og141   Og   0.94679   0.30871   0.24818   1.000
    Og142   Og   0.89600   0.50406   0.37729   1.000
    Og143   Og   0.72250   0.31776   0.37377   1.000
loop_
    _geom_bond_atom_site_label_1
    _geom_bond_atom_site_label_2
    _geom_bond_distance
    _geom_bond_site_symmetry_2
    _ccdc_geom_bond_type
    C29    O70       1.28686      .   S
    C29    O69       1.22755  1_554   S
    O89    C41       1.28688      .   S
    O89    Zn10      1.78442  1_454   S
    O70    Zn4       1.78445  1_554   S
    C41    O88       1.22743  1_554   S
    O61    Zn1       2.05960  1_655   S
    O61    C20       1.26919  1_554   S
    O96    Zn11      2.06002      .   S
    O96    C45       1.26900  1_554   S
    O74    C31       1.25041      .   S
    O93    C43       1.24946      .   S
    Zn2    O75       1.93432      .   S
    Zn2    O107      1.91291  1_455   S
    Zn2    O62       1.93730  1_454   S
    Zn12   O94       1.93444      .   S
    Zn12   O56       1.91296      .   S
    Zn12   O97       1.93734  1_554   S
    O75    C32       1.28522      .   S
    O94    C44       1.28522      .   S
    C31    O73       1.30736      .   S
    C43    O92       1.30741      .   S
    C32    O76       1.26804      .   S
    C44    O95       1.26805      .   S
    O76    Zn1       1.99987      .   S
    O95    Zn11      2.00013      .   S
    Zn1    O92       1.94180      .   S
    Zn1    O106      2.07631      .   S
    Zn11   O73       1.94171      .   S
    Zn11   O55       2.07586      .   S
    O107   C50       1.29419      .   S
    O56    C17       1.29402      .   S
    O55    C17       1.26416      .   S
    O106   C50       1.26426  1_455   S
    C30    O71       1.26408      .   S
    C30    O72       1.29416      .   S
    C42    O90       1.26417  1_455   S
    C42    O91       1.29421      .   S
    O71    Zn7       2.07660      .   S
    O90    Zn5       2.07540      .   S
    O57    Zn7       1.94241      .   S
    O57    C18       1.30816      .   S
    O108   Zn5       1.94210      .   S
    O108   C51       1.30721      .   S
    O72    Zn8       1.91322      .   S
    O91    Zn6       1.91319  1_455   S
    Zn7    O111      1.99985      .   S
    Zn7    O21       2.06093      .   S
    Zn5    O60       1.99997      .   S
    Zn5    O77       2.06118  1_655   S
    O111   C52       1.26804      .   S
    O60    C19       1.26804      .   S
    C52    O110      1.28528      .   S
    C19    O59       1.28529      .   S
    C51    O109      1.24962      .   S
    C18    O58       1.24962      .   S
    O110   Zn8       1.93443      .   S
    O59    Zn6       1.93431      .   S
    Zn8    O22       1.93699      .   S
    Zn6    O78       1.93709  1_655   S
    O21    C37       1.26919      .   S
    O77    C33       1.26925      .   S
    O54    C16       1.29224      .   S
    O54    Zn0       1.93699      .   S
    O105   C49       1.29220      .   S
    O105   Zn14      1.93692  1_655   S
    C49    O104      1.26863      .   S
    C16    O53       1.26919      .   S
    C37    O22       1.29223      .   S
    C33    O78       1.29222      .   S
    O104   Zn13      2.06173  1_655   S
    O53    Zn15      2.06094      .   S
    O82    C35       1.24903      .   S
    O85    C39       1.24961      .   S
    Zn14   O86       1.93432      .   S
    Zn14   O64       1.91333  1_455   S
    Zn0    O83       1.93431      .   S
    Zn0    O99       1.91320      .   S
    O83    C36       1.28550      .   S
    O86    C40       1.28530      .   S
    C35    O81       1.30777      .   S
    C39    O25       1.30718      .   S
    C40    O87       1.26775      .   S
    C36    O84       1.26802      .   S
    O87    Zn13      2.00003      .   S
    O84    Zn15      1.99984      .   S
    Zn13   O81       1.94209      .   S
    Zn13   O63       2.07541      .   S
    Zn15   O25       1.94199      .   S
    Zn15   O98       2.07555      .   S
    O64    C26       1.29407      .   S
    O99    C46       1.29430      .   S
    O63    C26       1.26417  1_455   S
    O98    C46       1.26413      .   S
    C38    O23       1.26416      .   S
    C38    O24       1.29417      .   S
    C34    O79       1.26424  1_455   S
    C34    O80       1.29405      .   S
    O79    Zn9       2.07593      .   S
    O23    Zn3       2.07585      .   S
    O100   Zn3       1.94179      .   S
    O100   C47       1.30750      .   S
    O65    Zn9       1.94164      .   S
    O65    C27       1.30742      .   S
    O80    Zn10      1.91291  1_455   S
    O24    Zn4       1.91294      .   S
    Zn3    O68       2.00012      .   S
    Zn3    O69       2.06001      .   S
    Zn9    O103      1.99985      .   S
    Zn9    O88       2.06001  1_655   S
    O68    C28       1.26802      .   S
    O103   C48       1.26804      .   S
    C28    O67       1.28527      .   S
    C48    O102      1.28522      .   S
    C27    O66       1.24960      .   S
    C47    O101      1.24966      .   S
    O67    Zn4       1.93444      .   S
    O102   Zn10      1.93432      .   S
    O62    C20       1.29225      .   S
    O97    C45       1.29226      .   S
    C16    Og112     0.50711      .   S
    C17    Og113     0.50988      .   S
    C18    Og114     0.51153      .   S
    C19    Og115     0.50935      .   S
    C20    Og116     0.50721      .   S
    C26    Og117     0.50995      .   S
    C27    Og118     0.51163      .   S
    C28    Og119     0.50939      .   S
    C29    Og120     0.52005      .   S
    C30    Og121     0.51003      .   S
    C31    Og122     0.51151      .   S
    C32    Og123     0.50931      .   S
    C33    Og124     0.50710      .   S
    C34    Og125     0.50989      .   S
    C35    Og126     0.51141      .   S
    C36    Og127     0.50935      .   S
    C37    Og128     0.50673      .   S
    C38    Og129     0.50988      .   S
    C39    Og130     0.51154      .   S
    C40    Og131     0.50935      .   S
    C41    Og132     0.52014      .   S
    C42    Og133     0.50995      .   S
    C43    Og134     0.51163      .   S
    C44    Og135     0.50939      .   S
    C45    Og136     0.50716      .   S
    C46    Og137     0.50998      .   S
    C47    Og138     0.51151      .   S
    C48    Og139     0.50934      .   S
    C49    Og140     0.50710      .   S
    C50    Og141     0.50984      .   S
    C51    Og142     0.51138      .   S
    C52    Og143     0.50934      .   S
