# CIF file generated by openbabel 2.4.90, see http://openbabel.sf.net
data_I
_chemical_name_common ''
_cell_length_a 15.554
_cell_length_b 14.514
_cell_length_c 15.025
_cell_angle_alpha 80.01
_cell_angle_beta 74.318
_cell_angle_gamma 77.467
_space_group_name_H-M_alt 'P 1'
_space_group_name_Hall 'P 1'
loop_
    _symmetry_equiv_pos_as_xyz
    x,y,z
loop_
    _atom_site_label
    _atom_site_type_symbol
    _atom_site_fract_x
    _atom_site_fract_y
    _atom_site_fract_z
    _atom_site_occupancy
    H0      H    0.76409   0.76074   0.48532   1.000
    H1      H    0.20905   0.95018   0.50236   1.000
    H2      H    0.97870   0.17745   0.50583   1.000
    H3      H    0.46716   0.75427   0.76468   1.000
    H4      H    0.51304   0.17543   0.97401   1.000
    H5      H    0.53069   0.95434   0.20294   1.000
    H6      H    0.77364   0.48338   0.76854   1.000
    H7      H    0.96938   0.50037   0.18201   1.000
    H8      H    0.20965   0.49905   0.95656   1.000
    H9      H    0.23550   0.23639   0.51702   1.000
    H10     H    0.79022   0.04760   0.49784   1.000
    H11     H    0.02046   0.82057   0.49678   1.000
    H12     H    0.53217   0.24302   0.23580   1.000
    H13     H    0.48666   0.82104   0.02668   1.000
    H14     H    0.46905   0.04267   0.79821   1.000
    H15     H    0.22516   0.51450   0.23530   1.000
    H16     H    0.02935   0.49778   0.82178   1.000
    H17     H    0.78910   0.49898   0.04725   1.000
    C18     C    0.23279   0.08975   0.51006   1.000
    C19     C    0.10285   0.21752   0.51182   1.000
    C20     C    0.19432   0.18589   0.51300   1.000
    C21     C    0.17963   0.02512   0.50560   1.000
    C22     C    0.33093   0.05616   0.50882   1.000
    C23     C    0.04957   0.15314   0.50760   1.000
    C24     C    0.08811   0.05639   0.50488   1.000
    C25     C    0.93606   0.67629   0.49162   1.000
    C26     C    0.52453   0.21926   0.10007   1.000
    C27     C    0.53211   0.09541   0.22977   1.000
    C28     C    0.53040   0.19076   0.19278   1.000
    C29     C    0.51940   0.15311   0.04522   1.000
    C30     C    0.51935   0.32199   0.06165   1.000
    C31     C    0.52956   0.02865   0.17442   1.000
    C32     C    0.52144   0.05744   0.08328   1.000
    C33     C    0.47029   0.93442   0.67108   1.000
    C34     C    0.09284   0.50731   0.21960   1.000
    C35     C    0.22827   0.50721   0.09230   1.000
    C36     C    0.18583   0.51067   0.18666   1.000
    C37     C    0.04153   0.50294   0.15721   1.000
    C38     C    0.05238   0.50661   0.32295   1.000
    C39     C    0.17735   0.50220   0.03015   1.000
    C40     C    0.08409   0.50127   0.06150   1.000
    C41     C    0.67071   0.49117   0.94529   1.000
    C42     C    0.76667   0.90767   0.49105   1.000
    C43     C    0.89654   0.78004   0.49073   1.000
    C44     C    0.80516   0.81146   0.48825   1.000
    C45     C    0.81968   0.97260   0.49521   1.000
    C46     C    0.66859   0.94102   0.49188   1.000
    C47     C    0.94967   0.84470   0.49459   1.000
    C48     C    0.91110   0.94153   0.49644   1.000
    C49     C    0.06330   0.32121   0.51190   1.000
    C50     C    0.47500   0.77758   0.90050   1.000
    C51     C    0.46746   0.90178   0.77102   1.000
    C52     C    0.46907   0.80636   0.80782   1.000
    C53     C    0.48029   0.84354   0.95549   1.000
    C54     C    0.47991   0.67483   0.93889   1.000
    C55     C    0.47014   0.96831   0.82654   1.000
    C56     C    0.47830   0.93926   0.91764   1.000
    C57     C    0.52917   0.06308   0.32976   1.000
    C58     C    0.90592   0.49063   0.78423   1.000
    C59     C    0.77047   0.49079   0.91146   1.000
    C60     C    0.81294   0.48731   0.81716   1.000
    C61     C    0.95721   0.49518   0.84658   1.000
    C62     C    0.94631   0.49114   0.68090   1.000
    C63     C    0.82138   0.49586   0.97365   1.000
    C64     C    0.91463   0.49688   0.94222   1.000
    C65     C    0.32805   0.50665   0.05840   1.000
    N66     N    0.04128   0.98431   0.50052   1.000
    N67     N    0.51436   0.98356   0.03710   1.000
    N68     N    0.04214   0.49734   0.98923   1.000
    N69     N    0.95785   0.00000   0.50060   1.000
    N70     N    0.48542   0.00000   0.96393   1.000
    N71     N    0.95658   0.50084   0.00000   1.000
    O72     O    0.37428   0.11716   0.51962   1.000
    O73     O    0.88432   0.62157   0.48505   1.000
    O74     O    0.01778   0.65055   0.49990   1.000
    O75     O    0.36358   0.96935   0.49600   1.000
    O76     O    0.51838   0.37935   0.11773   1.000
    O77     O    0.46832   0.87352   0.62012   1.000
    O78     O    0.47785   0.02160   0.64427   1.000
    O79     O    0.51490   0.34430   0.97670   1.000
    O80     O    0.10452   0.51951   0.37094   1.000
    O81     O    0.63009   0.47566   0.88736   1.000
    O82     O    0.63402   0.50790   0.02900   1.000
    O83     O    0.97104   0.49197   0.35550   1.000
    O84     O    0.62527   0.87982   0.48140   1.000
    O85     O    0.11497   0.37569   0.51911   1.000
    O86     O    0.98161   0.34716   0.50352   1.000
    O87     O    0.63594   0.02796   0.50412   1.000
    O88     O    0.48006   0.61751   0.88310   1.000
    O89     O    0.53039   0.12430   0.38074   1.000
    O90     O    0.52226   0.97574   0.35654   1.000
    O91     O    0.48493   0.65248   0.02365   1.000
    O92     O    0.89440   0.47732   0.63310   1.000
    O93     O    0.36865   0.52316   0.11589   1.000
    O94     O    0.36476   0.48878   0.97473   1.000
    O95     O    0.02745   0.50636   0.64825   1.000
loop_
    _geom_bond_atom_site_label_1
    _geom_bond_atom_site_label_2
    _geom_bond_distance
    _geom_bond_site_symmetry_2
    _ccdc_geom_bond_type
    N71    C64       1.23390  1_554   S
    N71    N68       1.28717  1_654   S
    O91    C54       1.27774  1_554   S
    H13    C53       1.08747  1_554   S
    O82    C41       1.27454  1_554   S
    C39    C40       1.40109      .   S
    C39    C35       1.39746      .   S
    C39    H8        1.08826  1_554   S
    N67    C32       1.41213  1_565   S
    N67    N70       1.26416  1_564   S
    C29    C32       1.40401      .   S
    C29    C26       1.39667      .   S
    C29    H4        1.08742  1_554   S
    H17    C63       1.08830  1_554   S
    C65    C35       1.49550      .   S
    C65    O93       1.27863      .   S
    C65    O94       1.27847  1_554   S
    C40    C37       1.41327      .   S
    C40    N68       1.42440  1_554   S
    C30    C26       1.49571      .   S
    C30    O76       1.27841      .   S
    C30    O79       1.27805  1_554   S
    C32    C31       1.39205      .   S
    C35    C36       1.39740      .   S
    C26    C28       1.40437      .   S
    C37    H7        1.08937  1_455   S
    C37    C34       1.40242      .   S
    C31    H5        1.08758  1_545   S
    C31    C27       1.39499      .   S
    C36    C34       1.40514      .   S
    C36    H15       1.08714      .   S
    C28    C27       1.39645      .   S
    C28    H12       1.08753      .   S
    C34    C38       1.50880      .   S
    C27    C57       1.48555      .   S
    C38    O83       1.27713  1_455   S
    C38    O80       1.28130      .   S
    C57    O90       1.28032  1_545   S
    C57    O89       1.27585      .   S
    O84    C46       1.27802      .   S
    O73    C25       1.27902      .   S
    H0     C44       1.08747      .   S
    C44    C43       1.40377      .   S
    C44    C42       1.39791      .   S
    C43    C25       1.49713      .   S
    C43    C47       1.39585      .   S
    C42    C46       1.49423      .   S
    C42    C45       1.39913      .   S
    C25    O74       1.27823  1_655   S
    C46    O87       1.27906  1_565   S
    C47    C48       1.40514      .   S
    C47    H11       1.08822  1_655   S
    C45    C48       1.39940      .   S
    C45    H10       1.08867  1_565   S
    O75    C22       1.27914  1_565   S
    C48    N69       1.25046  1_565   S
    N66    N69       1.26766  1_465   S
    N66    C24       1.41763  1_565   S
    H1     C21       1.08866  1_565   S
    O86    C49       1.27855  1_655   S
    C24    C21       1.39943      .   S
    C24    C23       1.40508      .   S
    C21    C18       1.39883      .   S
    H2     C23       1.08818  1_655   S
    C23    C19       1.39605      .   S
    C22    C18       1.49419      .   S
    C22    O72       1.27788      .   S
    C18    C20       1.39703      .   S
    C19    C49       1.49720      .   S
    C19    C20       1.40098      .   S
    C49    O85       1.27891      .   S
    C20    H9        1.09134      .   S
    O77    C33       1.27580      .   S
    O92    C62       1.28128      .   S
    O78    C33       1.28040  1_545   S
    O95    C62       1.27712  1_455   S
    C33    C51       1.48582      .   S
    C62    C58       1.50860      .   S
    H3     C52       1.08756      .   S
    H6     C60       1.08696      .   S
    C51    C52       1.39678      .   S
    C51    C55       1.39489      .   S
    C58    C60       1.40489      .   S
    C58    C61       1.40245      .   S
    H14    C55       1.08760  1_545   S
    C52    C50       1.40460      .   S
    C60    C59       1.39669      .   S
    H16    C61       1.08941  1_455   S
    C55    C56       1.39206      .   S
    C61    C64       1.41240      .   S
    O88    C54       1.27863      .   S
    O81    C41       1.27846      .   S
    C50    C54       1.49618      .   S
    C50    C53       1.39690      .   S
    C59    C41       1.49561      .   S
    C59    C63       1.39806      .   S
    C56    C53       1.40395      .   S
    C56    N70       1.25300  1_565   S
    C64    C63       1.40127      .   S
