# CIF file generated by openbabel 2.4.90, see http://openbabel.sf.net
data_I
_chemical_name_common ''
_cell_length_a 15.554
_cell_length_b 14.514
_cell_length_c 15.025
_cell_angle_alpha 80.01
_cell_angle_beta 74.318
_cell_angle_gamma 77.467
_space_group_name_H-M_alt 'P 1'
_space_group_name_Hall 'P 1'
loop_
    _symmetry_equiv_pos_as_xyz
    x,y,z
loop_
    _atom_site_label
    _atom_site_type_symbol
    _atom_site_fract_x
    _atom_site_fract_y
    _atom_site_fract_z
    _atom_site_occupancy
    Cu0     Cu   0.49729   0.47992   0.92528   1.000
    Cu1     Cu   0.92754   0.48329   0.49451   1.000
    Cu2     Cu   0.50530   0.07820   0.51424   1.000
    Cu3     Cu   0.50144   0.51733   0.07713   1.000
    Cu4     Cu   0.07150   0.51413   0.50943   1.000
    Cu5     Cu   0.49420   0.91912   0.48652   1.000
loop_
    _geom_bond_atom_site_label_1
    _geom_bond_atom_site_label_2
    _geom_bond_distance
    _geom_bond_site_symmetry_2
    _ccdc_geom_bond_type
    Cu5    Cu2       2.46570  1_565   S
    Cu0    Cu3       2.45543  1_556   S
    Cu1    Cu4       2.45060  1_655   S
