# CIF file generated by openbabel 2.4.90, see http://openbabel.sf.net
data_I
_chemical_name_common ''
_cell_length_a 15.554
_cell_length_b 14.514
_cell_length_c 15.025
_cell_angle_alpha 80.01
_cell_angle_beta 74.318
_cell_angle_gamma 77.467
_space_group_name_H-M_alt 'P 1'
_space_group_name_Hall 'P 1'
loop_
    _symmetry_equiv_pos_as_xyz
    x,y,z
loop_
    _atom_site_label
    _atom_site_type_symbol
    _atom_site_fract_x
    _atom_site_fract_y
    _atom_site_fract_z
    _atom_site_occupancy
    N0      N    0.99937   0.49896   0.00143   1.000
    N1      N    0.99968   0.99834   0.50089   1.000
    N2      N    0.49975   0.99809   0.00038   1.000
    Zr3     Zr   0.49975   0.99866   0.50038   1.000
    Zr4     Zr   0.49936   0.49862   0.00121   1.000
    Zr5     Zr   0.99952   0.49871   0.50197   1.000
    O6      O    0.49735   0.64054   0.99502   1.000
    O7      O    0.50162   0.35639   0.00675   1.000
    O8      O    0.50307   0.00494   0.35891   1.000
    O9      O    0.49642   0.99213   0.64186   1.000
    O10     O    0.99466   0.49791   0.64417   1.000
    O11     O    0.00426   0.49965   0.35949   1.000
    O12     O    0.00566   0.35646   0.50287   1.000
    O13     O    0.99350   0.64079   0.50051   1.000
    O14     O    0.64095   0.49785   0.99588   1.000
    O15     O    0.35778   0.49963   0.00677   1.000
    O16     O    0.64109   0.99298   0.49955   1.000
    O17     O    0.35838   0.00415   0.50144   1.000
loop_
    _geom_bond_atom_site_label_1
    _geom_bond_atom_site_label_2
    _geom_bond_distance
    _geom_bond_site_symmetry_2
    _ccdc_geom_bond_type
    N2     O6        5.21246  1_554   S
    Zr4    O6        2.03943  1_554   S
    N2     O7        5.22433  1_565   S
    Zr4    O7        2.04457      .   S
    N2     O8        5.41943  1_565   S
    Zr3    O8        2.09867  1_565   S
    N2     O9        5.41687  1_554   S
    Zr3    O9        2.09830      .   S
    Zr5    O10       2.11550      .   S
    N0     O10       5.39073  1_554   S
    Zr5    O11       2.11974  1_655   S
    N0     O11       5.40274  1_655   S
    Zr5    O12       2.04391  1_655   S
    N1     O12       5.22398  1_665   S
    Zr5    O13       2.04039      .   S
    N1     O13       5.21230      .   S
    Zr4    O14       2.17965  1_554   S
    N0     O14       5.60147  1_554   S
    Zr4    O15       2.17798      .   S
    N0     O15       5.59913  1_655   S
    Zr3    O16       2.17874      .   S
    N1     O16       5.60041      .   S
    Zr3    O17       2.17878  1_565   S
    N1     O17       5.60036  1_665   S
