# CIF file generated by openbabel 2.4.90, see http://openbabel.sf.net
data_I
_chemical_name_common ''
_cell_length_a 15.554
_cell_length_b 14.514
_cell_length_c 15.025
_cell_angle_alpha 80.01
_cell_angle_beta 74.318
_cell_angle_gamma 77.467
_space_group_name_H-M_alt 'P 1'
_space_group_name_Hall 'P 1'
loop_
    _symmetry_equiv_pos_as_xyz
    x,y,z
loop_
    _atom_site_label
    _atom_site_type_symbol
    _atom_site_fract_x
    _atom_site_fract_y
    _atom_site_fract_z
    _atom_site_occupancy
    Zr0     Zr   0.49420   0.91912   0.48652   1.000
    Zr1     Zr   0.49729   0.47992   0.92528   1.000
    Zr2     Zr   0.92754   0.48329   0.49451   1.000
    Zr3     Zr   0.50530   0.07820   0.51424   1.000
    Zr4     Zr   0.50144   0.51733   0.07713   1.000
    Zr5     Zr   0.07150   0.51413   0.50943   1.000
    O6      O    0.49975   0.99866   0.50038   1.000
    O7      O    0.49936   0.49862   0.00120   1.000
    O8      O    0.99952   0.49871   0.50197   1.000
    N9      N    0.99937   0.49896   0.00143   1.000
    O10     O    0.04369   0.50789   0.22081   1.000
    O11     O    0.78153   0.48837   0.95387   1.000
    O12     O    0.78355   0.50579   0.02725   1.000
    O13     O    0.97433   0.49330   0.21322   1.000
    O14     O    0.95517   0.48963   0.78262   1.000
    O15     O    0.21721   0.50960   0.04897   1.000
    O16     O    0.21520   0.49166   0.97572   1.000
    O17     O    0.02442   0.50460   0.79013   1.000
    N18     N    0.99968   0.99834   0.50089   1.000
    O19     O    0.21974   0.04801   0.50891   1.000
    O20     O    0.95281   0.77539   0.49533   1.000
    O21     O    0.02216   0.79034   0.50278   1.000
    O22     O    0.21429   0.97129   0.49607   1.000
    O23     O    0.77971   0.94891   0.49242   1.000
    O24     O    0.04646   0.22163   0.50758   1.000
    O25     O    0.97713   0.20678   0.49995   1.000
    O26     O    0.78515   0.02571   0.50503   1.000
    N27     N    0.49975   0.99809   0.00038   1.000
    O28     O    0.50483   0.22321   0.04890   1.000
    O29     O    0.49051   0.94720   0.77685   1.000
    O30     O    0.49566   0.02399   0.78982   1.000
    O31     O    0.50292   0.20510   0.97568   1.000
    O32     O    0.49421   0.77340   0.95228   1.000
    O33     O    0.50880   0.04967   0.22393   1.000
    O34     O    0.50399   0.97276   0.21095   1.000
    O35     O    0.49647   0.79150   0.02538   1.000
loop_
    _geom_bond_atom_site_label_1
    _geom_bond_atom_site_label_2
    _geom_bond_distance
    _geom_bond_site_symmetry_2
    _ccdc_geom_bond_type
    Zr0    O6        1.23285      .   S
    Zr3    O6        1.23285  1_545   S
    Zr1    O7        1.22771  1_556   S
    Zr4    O7        1.22771      .   S
    Zr2    O8        1.22530      .   S
    Zr5    O8        1.22530  1_455   S
    N9     O10       3.57381  1_655   S
    Zr5    O10       4.49092      .   S
    N9     O11       3.68609  1_554   S
    Zr1    O11       4.58545      .   S
    N9     O12       3.25484      .   S
    Zr4    O12       4.21787      .   S
    N9     O13       3.08828      .   S
    Zr2    O13       4.07230      .   S
    N9     O14       3.56599  1_554   S
    Zr2    O14       4.48249      .   S
    N9     O15       3.68621  1_655   S
    Zr4    O15       4.58030      .   S
    N9     O16       3.25397  1_654   S
    Zr1    O16       4.21638      .   S
    N9     O17       3.08093  1_654   S
    Zr5    O17       4.06391      .   S
    N18    O19       3.68418  1_665   S
    Zr3    O19       4.57995      .   S
    N18    O20       3.48724      .   S
    Zr2    O20       4.34415      .   S
    N18    O21       2.95884  1_655   S
    Zr5    O21       3.90355      .   S
    N18    O22       3.25759  1_655   S
    Zr0    O22       4.22119      .   S
    N18    O23       3.68372      .   S
    Zr0    O23       4.57986      .   S
    N18    O24       3.49538  1_665   S
    Zr5    O24       4.35202      .   S
    N18    O25       2.96698  1_565   S
    Zr2    O25       3.90953      .   S
    N18    O26       3.25837  1_565   S
    Zr3    O26       4.22114      .   S
    N27    O28       3.49052  1_565   S
    Zr4    O28       4.35012      .   S
    N27    O29       3.60746  1_554   S
    Zr0    O29       4.43504      .   S
    N27    O30       3.13689  1_564   S
    Zr3    O30       4.04610      .   S
    N27    O31       2.97238  1_564   S
    Zr1    O31       3.91498      .   S
    N27    O32       3.48393  1_554   S
    Zr1    O32       4.33729      .   S
    N27    O33       3.61057  1_565   S
    Zr3    O33       4.43718      .   S
    N27    O34       3.13822      .   S
    Zr0    O34       4.04527      .   S
    N27    O35       2.96646      .   S
    Zr4    O35       3.90777      .   S
