# CIF file generated by openbabel 2.4.90, see http://openbabel.sf.net
data_I
_chemical_name_common ''
_cell_length_a 15.554
_cell_length_b 14.514
_cell_length_c 15.025
_cell_angle_alpha 80.01
_cell_angle_beta 74.318
_cell_angle_gamma 77.467
_space_group_name_H-M_alt 'P 1'
_space_group_name_Hall 'P 1'
loop_
    _symmetry_equiv_pos_as_xyz
    x,y,z
loop_
    _atom_site_label
    _atom_site_type_symbol
    _atom_site_fract_x
    _atom_site_fract_y
    _atom_site_fract_z
    _atom_site_occupancy
    N0      N    0.99937   0.49896   0.00143   1.000
    N1      N    0.99968   0.99834   0.50089   1.000
    N2      N    0.49975   0.99809   0.00038   1.000
    Zr3     Zr   0.49975   0.99866   0.50038   1.000
    O4      O    0.49513   0.97293   0.63861   1.000
    O5      O    0.50187   0.98571   0.35567   1.000
    O6      O    0.35702   0.98497   0.49823   1.000
    O7      O    0.63973   0.97378   0.49640   1.000
    O8      O    0.49771   0.01133   0.64510   1.000
    O9      O    0.50428   0.02416   0.36216   1.000
    O10     O    0.64245   0.01218   0.50271   1.000
    O11     O    0.35974   0.02333   0.50464   1.000
    Zr12    Zr   0.49936   0.49862   0.00121   1.000
    O13     O    0.50210   0.36092   0.02505   1.000
    O14     O    0.35829   0.50411   0.02509   1.000
    O15     O    0.64146   0.50221   0.01423   1.000
    O16     O    0.49792   0.64506   0.01329   1.000
    O17     O    0.49679   0.63601   0.97674   1.000
    O18     O    0.50114   0.35186   0.98844   1.000
    O19     O    0.64045   0.49350   0.97754   1.000
    O20     O    0.35728   0.49514   0.98846   1.000
    Zr21    Zr   0.99952   0.49871   0.50197   1.000
    O22     O    0.97734   0.49417   0.64229   1.000
    O23     O    0.98692   0.49600   0.35759   1.000
    O24     O    0.97616   0.63705   0.49865   1.000
    O25     O    0.98832   0.35275   0.50096   1.000
    O26     O    0.02161   0.50330   0.36139   1.000
    O27     O    0.02299   0.36017   0.50477   1.000
    O28     O    0.01084   0.64453   0.50237   1.000
    O29     O    0.01197   0.50166   0.64605   1.000
loop_
    _geom_bond_atom_site_label_1
    _geom_bond_atom_site_label_2
    _geom_bond_distance
    _geom_bond_site_symmetry_2
    _ccdc_geom_bond_type
    Zr3    O4        2.02985      .   S
    N2     O4        5.53125  1_554   S
    Zr3    O5        2.20552      .   S
    N2     O5        5.31879      .   S
    Zr3    O6        2.28069      .   S
    N1     O6        5.50865  1_655   S
    Zr3    O7        2.11429      .   S
    N1     O7        5.70575      .   S
    Zr3    O8        2.20491  1_565   S
    N2     O8        5.31663  1_564   S
    Zr3    O9        2.02994  1_565   S
    N2     O9        5.53417  1_565   S
    Zr3    O10       2.28028  1_565   S
    N1     O10       5.50906  1_565   S
    Zr3    O11       2.11392  1_565   S
    N1     O11       5.70603  1_665   S
    Zr12   O13       1.96155      .   S
    N2     O13       5.35151  1_565   S
    Zr12   O14       2.11153      .   S
    N0     O14       5.70617  1_655   S
    Zr12   O15       2.28313      .   S
    N0     O15       5.50828      .   S
    Zr12   O16       2.15911      .   S
    N2     O16       5.09980      .   S
    Zr12   O17       1.95755  1_554   S
    N2     O17       5.33917  1_554   S
    Zr12   O18       2.16520  1_554   S
    N2     O18       5.11115  1_564   S
    Zr12   O19       2.11280  1_554   S
    N0     O19       5.70846  1_554   S
    Zr12   O20       2.28119  1_554   S
    N0     O20       5.50593  1_654   S
    Zr21   O22       2.03397      .   S
    N0     O22       5.51170  1_554   S
    Zr21   O23       2.23791      .   S
    N0     O23       5.29533      .   S
    Zr21   O24       1.95560      .   S
    N1     O24       5.34165      .   S
    Zr21   O25       2.16594      .   S
    N1     O25       5.10856  1_565   S
    Zr21   O26       2.03786  1_655   S
    N0     O26       5.52388  1_655   S
    Zr21   O27       1.95925  1_655   S
    N1     O27       5.35326  1_665   S
    Zr21   O28       2.16259  1_655   S
    N1     O28       5.09683  1_655   S
    Zr21   O29       2.23343  1_655   S
    N0     O29       5.28352  1_654   S
