# CIF file generated by openbabel 2.4.90, see http://openbabel.sf.net
data_I
_chemical_name_common ''
_cell_length_a 21.028
_cell_length_b 18.14
_cell_length_c 18.136
_cell_angle_alpha 119.953
_cell_angle_beta 89.998
_cell_angle_gamma 89.995
_space_group_name_H-M_alt 'P 1'
_space_group_name_Hall 'P 1'
loop_
    _symmetry_equiv_pos_as_xyz
    x,y,z
loop_
    _atom_site_label
    _atom_site_type_symbol
    _atom_site_fract_x
    _atom_site_fract_y
    _atom_site_fract_z
    _atom_site_occupancy
    Zn0     Zn   0.77786   0.55052   0.07500   1.000
    Zn1     Zn   0.11120   0.52531   0.44960   1.000
    Zn2     Zn   0.61119   0.52526   0.44951   1.000
    Zn3     Zn   0.44453   0.92436   0.47506   1.000
    Zn4     Zn   0.94452   0.92433   0.47511   1.000
    Zn5     Zn   0.02785   0.44923   0.92431   1.000
    Zn6     Zn   0.52785   0.44938   0.92426   1.000
    Zn7     Zn   0.36119   0.47471   0.55044   1.000
    Zn8     Zn   0.86119   0.47459   0.55034   1.000
    Zn9     Zn   0.19451   0.07558   0.52495   1.000
    Zn10    Zn   0.69452   0.07553   0.52476   1.000
    Zn11    Zn   0.27785   0.55060   0.07570   1.000
