# CIF file generated by openbabel 2.4.90, see http://openbabel.sf.net
data_I
_chemical_name_common ''
_cell_length_a 21.028
_cell_length_b 18.14
_cell_length_c 18.136
_cell_angle_alpha 119.953
_cell_angle_beta 89.998
_cell_angle_gamma 89.995
_space_group_name_H-M_alt 'P 1'
_space_group_name_Hall 'P 1'
loop_
    _symmetry_equiv_pos_as_xyz
    x,y,z
loop_
    _atom_site_label
    _atom_site_type_symbol
    _atom_site_fract_x
    _atom_site_fract_y
    _atom_site_fract_z
    _atom_site_occupancy
    Zn0     Zn   0.77786   0.55052   0.07500   1.000
    Zn1     Zn   0.11120   0.52531   0.44960   1.000
    Zn2     Zn   0.61119   0.52526   0.44951   1.000
    Zn3     Zn   0.44453   0.92436   0.47506   1.000
    Zn4     Zn   0.94452   0.92433   0.47511   1.000
    Zn5     Zn   0.02785   0.44923   0.92431   1.000
    Zn6     Zn   0.52785   0.44938   0.92426   1.000
    Zn7     Zn   0.36119   0.47471   0.55044   1.000
    Zn8     Zn   0.86119   0.47459   0.55034   1.000
    Zn9     Zn   0.19451   0.07558   0.52495   1.000
    Zn10    Zn   0.69452   0.07553   0.52476   1.000
    Zn11    Zn   0.27785   0.55060   0.07570   1.000
    C12     C    0.34161   0.04783   0.51139   1.000
    C13     C    0.84161   0.04779   0.51134   1.000
    C14     C    0.17495   0.46349   0.95215   1.000
    C15     C    0.67496   0.46352   0.95211   1.000
    C16     C    0.00831   0.48812   0.53627   1.000
    C17     C    0.50832   0.48814   0.53627   1.000
    C18     C    0.42494   0.53645   0.04784   1.000
    C19     C    0.92497   0.53634   0.04792   1.000
    C20     C    0.25834   0.51188   0.46371   1.000
    C21     C    0.75831   0.51178   0.46364   1.000
    C22     C    0.09161   0.95213   0.48866   1.000
    C23     C    0.59163   0.95206   0.48847   1.000
    Br24    Br   0.29162   0.45921   0.13390   1.000
    Br25    Br   0.79151   0.45908   0.13386   1.000
    Br26    Br   0.12462   0.67479   0.54126   1.000
    Br27    Br   0.62472   0.67473   0.54110   1.000
    Br28    Br   0.45812   0.86609   0.32546   1.000
    Br29    Br   0.95825   0.86597   0.32552   1.000
    Br30    Br   0.04156   0.54060   0.86606   1.000
    Br31    Br   0.54157   0.54077   0.86604   1.000
    Br32    Br   0.37467   0.32524   0.45877   1.000
    Br33    Br   0.87469   0.32511   0.45872   1.000
    Br34    Br   0.20819   0.13387   0.67453   1.000
    Br35    Br   0.70818   0.13389   0.67436   1.000
    O36     O    0.12794   0.41556   0.91505   1.000
    O37     O    0.62793   0.41563   0.91499   1.000
    O38     O    0.17759   0.51865   0.03130   1.000
    O39     O    0.67760   0.51864   0.03127   1.000
    O40     O    0.46127   0.49854   0.58405   1.000
    O41     O    0.96125   0.49845   0.58000   1.000
    O42     O    0.01094   0.51253   0.48137   1.000
    O43     O    0.51094   0.51256   0.48138   1.000
    O44     O    0.29458   0.08492   0.50054   1.000
    O45     O    0.79460   0.08487   0.50040   1.000
    O46     O    0.34428   0.96870   0.48740   1.000
    O47     O    0.84428   0.96866   0.48739   1.000
    O48     O    0.37791   0.58437   0.08495   1.000
    O49     O    0.87795   0.58423   0.08508   1.000
    O50     O    0.42760   0.48132   0.96868   1.000
    O51     O    0.92762   0.48127   0.96874   1.000
    O52     O    0.21128   0.50155   0.41598   1.000
    O53     O    0.71127   0.50133   0.41584   1.000
    O54     O    0.26095   0.48749   0.51862   1.000
    O55     O    0.76094   0.48738   0.51854   1.000
    O56     O    0.04458   0.91506   0.49957   1.000
    O57     O    0.54462   0.91495   0.49933   1.000
    O58     O    0.09428   0.03127   0.51259   1.000
    O59     O    0.59429   0.03121   0.51249   1.000
loop_
    _geom_bond_atom_site_label_1
    _geom_bond_atom_site_label_2
    _geom_bond_distance
    _geom_bond_site_symmetry_2
    _ccdc_geom_bond_type
    O39    Zn0       2.22496      .   S
    O39    C15       1.27692  1_554   S
    O38    Zn11      2.22788      .   S
    O38    C14       1.27693  1_554   S
    C18    O48       1.26565      .   S
    C18    O50       1.27696  1_554   S
    C19    O49       1.26565      .   S
    C19    O51       1.27695  1_554   S
    Zn0    O49       2.17379      .   S
    Zn0    Br25      2.39612      .   S
    Zn11   O48       2.17451      .   S
    Zn11   Br24      2.38611      .   S
    Br28   Zn3       2.38670      .   S
    Br29   Zn4       2.38665      .   S
    O53    Zn2       2.17377      .   S
    O53    C21       1.26562      .   S
    O52    Zn1       2.17345      .   S
    O52    C20       1.26560      .   S
    Zn2    O43       2.22804      .   S
    Zn2    Br27      2.38637      .   S
    Zn1    O42       2.22791      .   S
    Zn1    Br26      2.38630      .   S
    Br33   Zn8       2.38632      .   S
    Br32   Zn7       2.38635      .   S
    C21    O55       1.27689      .   S
    C20    O54       1.27693      .   S
    Zn3    O46       2.22724      .   S
    Zn3    O57       2.17434      .   S
    Zn4    O47       2.22713      .   S
    Zn4    O56       2.17422  1_655   S
    O42    C16       1.27701      .   S
    O43    C17       1.27700      .   S
    O47    C13       1.27669  1_565   S
    O46    C12       1.27646  1_565   S
    C23    O57       1.26564      .   S
    C23    O59       1.27674  1_565   S
    C22    O56       1.26564      .   S
    C22    O58       1.27673  1_565   S
    O45    C13       1.26569      .   S
    O45    Zn10      2.17430      .   S
    O44    C12       1.26564      .   S
    O44    Zn9       2.17414      .   S
    O59    Zn10      2.22701      .   S
    O58    Zn9       2.22702      .   S
    O55    Zn8       2.22790      .   S
    O54    Zn7       2.22796      .   S
    Zn10   Br35      2.38672      .   S
    Zn9    Br34      2.38655      .   S
    C17    O40       1.26558      .   S
    C16    O41       1.22266  1_455   S
    Zn8    O41       2.16148      .   S
    Zn7    O40       2.17358      .   S
    Br31   Zn6       2.38626      .   S
    Br30   Zn5       2.38644      .   S
    O37    Zn6       2.17453      .   S
    O37    C15       1.26566      .   S
    O36    Zn5       2.17439      .   S
    O36    C14       1.26565      .   S
    Zn6    O50       2.22773      .   S
    Zn5    O51       2.22751  1_455   S
