# CIF file generated by openbabel 2.4.90, see http://openbabel.sf.net
data_I
_chemical_name_common ''
_cell_length_a 21.028
_cell_length_b 18.14
_cell_length_c 18.136
_cell_angle_alpha 119.953
_cell_angle_beta 89.998
_cell_angle_gamma 89.995
_space_group_name_H-M_alt 'P 1'
_space_group_name_Hall 'P 1'
loop_
    _symmetry_equiv_pos_as_xyz
    x,y,z
loop_
    _atom_site_label
    _atom_site_type_symbol
    _atom_site_fract_x
    _atom_site_fract_y
    _atom_site_fract_z
    _atom_site_occupancy
    Zr0     Zr   0.27785   0.55060   0.07570   1.000
    Zr1     Zr   0.77786   0.55052   0.07500   1.000
    Zr2     Zr   0.11120   0.52531   0.44960   1.000
    Zr3     Zr   0.61119   0.52526   0.44951   1.000
    Zr4     Zr   0.44453   0.92436   0.47506   1.000
    Zr5     Zr   0.94452   0.92433   0.47511   1.000
    Zr6     Zr   0.02785   0.44923   0.92431   1.000
    Zr7     Zr   0.52785   0.44938   0.92426   1.000
    Zr8     Zr   0.36119   0.47471   0.55044   1.000
    Zr9     Zr   0.86119   0.47459   0.55034   1.000
    Zr10    Zr   0.19451   0.07558   0.52495   1.000
    Zr11    Zr   0.69452   0.07553   0.52476   1.000
    Zr12    Zr   0.29162   0.45921   0.13390   1.000
    Zr13    Zr   0.79151   0.45908   0.13386   1.000
    Zr14    Zr   0.12462   0.67479   0.54126   1.000
    Zr15    Zr   0.62472   0.67473   0.54110   1.000
    Zr16    Zr   0.45812   0.86609   0.32546   1.000
    Zr17    Zr   0.95825   0.86597   0.32552   1.000
    Zr18    Zr   0.04156   0.54060   0.86606   1.000
    Zr19    Zr   0.54157   0.54077   0.86604   1.000
    Zr20    Zr   0.37467   0.32524   0.45877   1.000
    Zr21    Zr   0.87469   0.32511   0.45872   1.000
    Zr22    Zr   0.20819   0.13387   0.67453   1.000
    Zr23    Zr   0.70818   0.13389   0.67436   1.000
    O24     O    0.78468   0.50480   0.10443   1.000
    O25     O    0.28473   0.50491   0.10480   1.000
    O26     O    0.45132   0.89523   0.40026   1.000
    O27     O    0.95138   0.89515   0.40031   1.000
    O28     O    0.61796   0.60000   0.49530   1.000
    O29     O    0.11791   0.60005   0.49543   1.000
    O30     O    0.86794   0.39985   0.50453   1.000
    O31     O    0.36793   0.39997   0.50460   1.000
    O32     O    0.70135   0.10471   0.59956   1.000
    O33     O    0.20135   0.10472   0.59974   1.000
    O34     O    0.53471   0.49508   0.89515   1.000
    O35     O    0.03471   0.49491   0.89518   1.000
    N36     N    0.29584   0.46313   0.82871   1.000
    O37     O    0.28867   0.49686   0.91939   1.000
    O38     O    0.32329   0.48013   0.72151   1.000
    N39     N    0.87924   0.63456   0.46332   1.000
    O40     O    0.87207   0.57747   0.49691   1.000
    O41     O    0.90666   0.75873   0.48041   1.000
    N42     N    0.12926   0.36536   0.53663   1.000
    O43     O    0.12208   0.42244   0.50303   1.000
    O44     O    0.15667   0.24119   0.51957   1.000
    N45     N    0.62925   0.36531   0.53651   1.000
    O46     O    0.62207   0.42239   0.50293   1.000
    O47     O    0.65667   0.24114   0.51941   1.000
    N48     N    0.04584   0.53673   0.17128   1.000
    O49     O    0.03868   0.50298   0.08060   1.000
    O50     O    0.07330   0.51980   0.27850   1.000
    N51     N    0.21249   0.82871   0.36574   1.000
    O52     O    0.23994   0.72156   0.24146   1.000
    O53     O    0.20533   0.91934   0.42257   1.000
    N54     N    0.96250   0.17114   0.63430   1.000
    O55     O    0.98995   0.27828   0.75858   1.000
    O56     O    0.95533   0.08054   0.57748   1.000
    N57     N    0.79587   0.46304   0.82867   1.000
    O58     O    0.78870   0.49678   0.91919   1.000
    O59     O    0.82331   0.48002   0.72144   1.000
    N60     N    0.71256   0.82872   0.36561   1.000
    O61     O    0.73999   0.72153   0.24120   1.000
    O62     O    0.70538   0.91932   0.42242   1.000
    N63     N    0.54583   0.53687   0.17126   1.000
    O64     O    0.57329   0.51986   0.27846   1.000
    O65     O    0.53867   0.50313   0.08058   1.000
    N66     N    0.46251   0.17123   0.63423   1.000
    O67     O    0.48996   0.27840   0.75851   1.000
    O68     O    0.45535   0.08060   0.57741   1.000
    N69     N    0.37929   0.63465   0.46339   1.000
    O70     O    0.40670   0.75879   0.48046   1.000
    O71     O    0.37210   0.57757   0.49700   1.000
    C72     C    0.16016   0.46590   0.96617   1.000
    O73     O    0.20489   0.46336   0.92106   1.000
    O74     O    0.19394   0.50026   0.00983   1.000
    O75     O    0.11903   0.44914   0.94292   1.000
    C76     C    0.41015   0.53405   0.03382   1.000
    O77     O    0.44394   0.49970   0.99015   1.000
    O78     O    0.45488   0.53661   0.07892   1.000
    O79     O    0.36901   0.55077   0.05707   1.000
    C80     C    0.91018   0.53395   0.03391   1.000
    O81     O    0.94396   0.49960   0.99022   1.000
    O82     O    0.95491   0.53649   0.07899   1.000
    O83     O    0.86904   0.55066   0.05698   1.000
    C84     C    0.66016   0.46593   0.96612   1.000
    O85     O    0.70491   0.46335   0.92102   1.000
    O86     O    0.69395   0.50026   0.00963   1.000
    O87     O    0.61903   0.44922   0.94287   1.000
    C88     C    0.57685   0.96607   0.50010   1.000
    O89     O    0.62159   0.92100   0.45760   1.000
    O90     O    0.61063   0.00972   0.50936   1.000
    O91     O    0.53571   0.94286   0.49365   1.000
    C92     C    0.07682   0.96615   0.50027   1.000
    O93     O    0.03569   0.94293   0.49381   1.000
    O94     O    0.12155   0.92105   0.45776   1.000
    O95     O    0.11061   0.00979   0.50952   1.000
    C96     C    0.32682   0.03382   0.49978   1.000
    O97     O    0.28568   0.05703   0.50626   1.000
    O98     O    0.37156   0.07891   0.54226   1.000
    O99     O    0.36061   0.99017   0.49050   1.000
    C100    C    0.82683   0.03377   0.49971   1.000
    O101    O    0.78570   0.05699   0.50614   1.000
    O102    O    0.87156   0.07886   0.54224   1.000
    O103    O    0.86061   0.99013   0.49048   1.000
    C104    C    0.24352   0.50031   0.46610   1.000
    O105    O    0.20238   0.50687   0.44945   1.000
    O106    O    0.28829   0.54276   0.46358   1.000
    O107    O    0.27730   0.49070   0.50032   1.000
    C108    C    0.74351   0.50016   0.46601   1.000
    O109    O    0.70237   0.50673   0.44934   1.000
    O110    O    0.78827   0.54264   0.46350   1.000
    O111    O    0.77729   0.49057   0.50022   1.000
    C112    C    0.99350   0.49970   0.53255   1.000
    O113    O    0.03827   0.45725   0.53575   1.000
    O114    O    0.95236   0.49311   0.54886   1.000
    O115    O    0.02729   0.50931   0.49902   1.000
    C116    C    0.49351   0.49975   0.53390   1.000
    O117    O    0.53827   0.45726   0.53639   1.000
    O118    O    0.45237   0.49318   0.55057   1.000
    O119    O    0.52729   0.50933   0.49967   1.000
loop_
    _geom_bond_atom_site_label_1
    _geom_bond_atom_site_label_2
    _geom_bond_distance
    _geom_bond_site_symmetry_2
    _ccdc_geom_bond_type
    Zr1    O24       1.19806      .   S
    Zr13   O24       1.19806      .   S
    Zr0    O25       1.19305      .   S
    Zr12   O25       1.19305      .   S
    Zr16   O26       1.19335      .   S
    Zr4    O26       1.19335      .   S
    Zr17   O27       1.19333      .   S
    Zr5    O27       1.19333      .   S
    Zr3    O28       1.19319      .   S
    Zr15   O28       1.19319      .   S
    Zr2    O29       1.19315      .   S
    Zr14   O29       1.19315      .   S
    Zr21   O30       1.19316      .   S
    Zr9    O30       1.19316      .   S
    Zr20   O31       1.19318      .   S
    Zr8    O31       1.19318      .   S
    Zr11   O32       1.19336      .   S
    Zr23   O32       1.19336      .   S
    Zr10   O33       1.19327      .   S
    Zr22   O33       1.19327      .   S
    Zr19   O34       1.19313      .   S
    Zr7    O34       1.19313      .   S
    Zr18   O35       1.19322      .   S
    Zr6    O35       1.19322      .   S
    N36    O37       1.44800      .   S
    Zr0    O37       2.50577  1_554   S
    N36    O38       2.19251      .   S
    Zr8    O38       3.15685      .   S
    N39    O40       1.44796      .   S
    Zr9    O40       2.50602      .   S
    N39    O41       2.19196      .   S
    Zr5    O41       3.15534      .   S
    N42    O43       1.44790      .   S
    Zr2    O43       2.50588      .   S
    N42    O44       2.19204      .   S
    Zr10   O44       3.15605      .   S
    N45    O46       1.44765      .   S
    Zr3    O46       2.50556      .   S
    N45    O47       2.19195      .   S
    Zr11   O47       3.15561      .   S
    N48    O49       1.44791      .   S
    Zr6    O49       2.50548  1_556   S
    N48    O50       2.19218      .   S
    Zr2    O50       3.15658      .   S
    N51    O52       2.19457      .   S
    Zr0    O52       3.15911      .   S
    N51    O53       1.44761      .   S
    Zr10   O53       2.50536  1_545   S
    N54    O55       2.19465      .   S
    Zr6    O55       3.15895  1_455   S
    N54    O56       1.44727      .   S
    Zr5    O56       2.50491  1_565   S
    N57    O58       1.44536      .   S
    Zr1    O58       2.49729  1_554   S
    N57    O59       2.19263      .   S
    Zr9    O59       3.15724      .   S
    N60    O61       2.19611      .   S
    Zr1    O61       3.16309      .   S
    N60    O62       1.44735      .   S
    Zr11   O62       2.50490  1_545   S
    N63    O64       2.19244      .   S
    Zr3    O64       3.15678      .   S
    N63    O65       1.44808      .   S
    Zr7    O65       2.50594  1_556   S
    N66    O67       2.19481      .   S
    Zr7    O67       3.15938      .   S
    N66    O68       1.44764      .   S
    Zr4    O68       2.50542  1_565   S
    N69    O70       2.19165      .   S
    Zr4    O70       3.15538      .   S
    N69    O71       1.44797      .   S
    Zr8    O71       2.50592      .   S
    C72    O73       1.23221      .   S
    N36    O73       2.54080      .   S
    C72    O74       1.01363  1_556   S
    Zr0    O74       2.07010      .   S
    C72    O75       0.94353      .   S
    Zr6    O75       1.94684      .   S
    C76    O77       1.01366  1_554   S
    Zr7    O77       2.07007      .   S
    C76    O78       1.23214      .   S
    N63    O78       2.54061      .   S
    C76    O79       0.94351      .   S
    Zr0    O79       1.94685      .   S
    C80    O81       1.01368  1_554   S
    Zr6    O81       2.07002  1_455   S
    C80    O82       1.23190      .   S
    N48    O82       2.53978  1_455   S
    C80    O83       0.94258      .   S
    Zr1    O83       1.94521      .   S
    C84    O85       1.23212      .   S
    N57    O85       2.54054      .   S
    C84    O86       1.01215  1_556   S
    Zr1    O86       2.06675      .   S
    C84    O87       0.94358      .   S
    Zr7    O87       1.94697      .   S
    C88    O89       1.23221      .   S
    N60    O89       2.54071      .   S
    C88    O90       1.01342  1_565   S
    Zr11   O90       2.06949      .   S
    C88    O91       0.94347      .   S
    Zr4    O91       1.94676      .   S
    C92    O93       0.94352      .   S
    Zr5    O93       1.94678  1_655   S
    C92    O94       1.23223      .   S
    N51    O94       2.54083      .   S
    C92    O95       1.01337  1_565   S
    Zr10   O95       2.06942      .   S
    C96    O97       0.94340      .   S
    Zr10   O97       1.94663      .   S
    C96    O98       1.23228      .   S
    N66    O98       2.54087      .   S
    C96    O99       1.01335  1_545   S
    Zr4    O99       2.06955      .   S
    C100   O101      0.94338      .   S
    Zr11   O101      1.94663      .   S
    C100   O102      1.23232      .   S
    N54    O102      2.54103      .   S
    C100   O103      1.01336  1_545   S
    Zr5    O103      2.06946      .   S
    C104   O105      0.94329      .   S
    Zr2    O105      1.94610      .   S
    C104   O106      1.23157      .   S
    N69    O106      2.53897      .   S
    C104   O107      1.01377      .   S
    Zr8    O107      2.07033      .   S
    C108   O109      0.94329      .   S
    Zr3    O109      1.94624      .   S
    C108   O110      1.23158      .   S
    N39    O110      2.53893      .   S
    C108   O111      1.01373      .   S
    Zr9    O111      2.07027      .   S
    C112   O113      1.23575  1_655   S
    N42    O113      2.54272      .   S
    C112   O114      0.94104      .   S
    Zr9    O114      1.94895      .   S
    C112   O115      1.00535  1_655   S
    Zr2    O115      2.06413      .   S
    C116   O117      1.23150      .   S
    N45    O117      2.53874      .   S
    C116   O118      0.94332      .   S
    Zr8    O118      1.94620      .   S
    C116   O119      1.01380      .   S
    Zr3    O119      2.07040      .   S
