# CIF file generated by openbabel 2.4.90, see http://openbabel.sf.net
data_I
_chemical_name_common ''
_cell_length_a 21.028
_cell_length_b 18.14
_cell_length_c 18.136
_cell_angle_alpha 119.953
_cell_angle_beta 89.998
_cell_angle_gamma 89.995
_space_group_name_H-M_alt 'P 1'
_space_group_name_Hall 'P 1'
loop_
    _symmetry_equiv_pos_as_xyz
    x,y,z
loop_
    _atom_site_label
    _atom_site_type_symbol
    _atom_site_fract_x
    _atom_site_fract_y
    _atom_site_fract_z
    _atom_site_occupancy
    Zr0     Zr   0.27785   0.55060   0.07570   1.000
    Zr1     Zr   0.77786   0.55052   0.07500   1.000
    Zr2     Zr   0.11120   0.52531   0.44960   1.000
    Zr3     Zr   0.61119   0.52526   0.44951   1.000
    Zr4     Zr   0.44453   0.92436   0.47506   1.000
    Zr5     Zr   0.94452   0.92433   0.47511   1.000
    Zr6     Zr   0.02785   0.44923   0.92431   1.000
    Zr7     Zr   0.52785   0.44938   0.92426   1.000
    Zr8     Zr   0.36119   0.47471   0.55044   1.000
    Zr9     Zr   0.86119   0.47459   0.55034   1.000
    Zr10    Zr   0.19451   0.07558   0.52495   1.000
    Zr11    Zr   0.69452   0.07553   0.52476   1.000
    Zr12    Zr   0.17495   0.46349   0.95215   1.000
    Zr13    Zr   0.67496   0.46352   0.95211   1.000
    Zr14    Zr   0.00831   0.48812   0.53627   1.000
    Zr15    Zr   0.50832   0.48814   0.53627   1.000
    Zr16    Zr   0.34161   0.04783   0.51139   1.000
    Zr17    Zr   0.84161   0.04779   0.51134   1.000
    Zr18    Zr   0.42494   0.53645   0.04784   1.000
    Zr19    Zr   0.92497   0.53634   0.04792   1.000
    Zr20    Zr   0.25834   0.51188   0.46371   1.000
    Zr21    Zr   0.75831   0.51178   0.46364   1.000
    Zr22    Zr   0.09161   0.95213   0.48866   1.000
    Zr23    Zr   0.59163   0.95206   0.48847   1.000
    Zr24    Zr   0.29162   0.45921   0.13390   1.000
    Zr25    Zr   0.79151   0.45908   0.13386   1.000
    Zr26    Zr   0.12462   0.67479   0.54126   1.000
    Zr27    Zr   0.62472   0.67473   0.54110   1.000
    Zr28    Zr   0.45812   0.86609   0.32546   1.000
    Zr29    Zr   0.95825   0.86597   0.32552   1.000
    Zr30    Zr   0.04156   0.54060   0.86606   1.000
    Zr31    Zr   0.54157   0.54077   0.86604   1.000
    Zr32    Zr   0.37467   0.32524   0.45877   1.000
    Zr33    Zr   0.87469   0.32511   0.45872   1.000
    Zr34    Zr   0.20819   0.13387   0.67453   1.000
    Zr35    Zr   0.70818   0.13389   0.67436   1.000
    Zr36    Zr   0.12794   0.41556   0.91505   1.000
    Zr37    Zr   0.62793   0.41563   0.91499   1.000
    Zr38    Zr   0.17759   0.51865   0.03130   1.000
    Zr39    Zr   0.67760   0.51864   0.03127   1.000
    Zr40    Zr   0.46127   0.49854   0.58405   1.000
    Zr41    Zr   0.96125   0.49845   0.58000   1.000
    Zr42    Zr   0.01094   0.51253   0.48137   1.000
    Zr43    Zr   0.51094   0.51256   0.48138   1.000
    Zr44    Zr   0.29458   0.08492   0.50054   1.000
    Zr45    Zr   0.79460   0.08487   0.50040   1.000
    Zr46    Zr   0.34428   0.96870   0.48740   1.000
    Zr47    Zr   0.84428   0.96866   0.48739   1.000
    Zr48    Zr   0.37791   0.58437   0.08495   1.000
    Zr49    Zr   0.87795   0.58423   0.08508   1.000
    Zr50    Zr   0.42760   0.48132   0.96868   1.000
    Zr51    Zr   0.92762   0.48127   0.96874   1.000
    Zr52    Zr   0.21128   0.50155   0.41598   1.000
    Zr53    Zr   0.71127   0.50133   0.41584   1.000
    Zr54    Zr   0.26095   0.48749   0.51862   1.000
    Zr55    Zr   0.76094   0.48738   0.51854   1.000
    Zr56    Zr   0.04458   0.91506   0.49957   1.000
    Zr57    Zr   0.54462   0.91495   0.49933   1.000
    Zr58    Zr   0.09428   0.03127   0.51259   1.000
    Zr59    Zr   0.59429   0.03121   0.51249   1.000
    O60     O    0.72773   0.53458   0.05313   1.000
    O61     O    0.67628   0.49108   0.99169   1.000
    O62     O    0.22772   0.53462   0.05350   1.000
    O63     O    0.17627   0.49107   0.99172   1.000
    O64     O    0.40143   0.56041   0.06639   1.000
    O65     O    0.42627   0.50889   0.00826   1.000
    O66     O    0.90146   0.56029   0.06650   1.000
    O67     O    0.92629   0.50881   0.00833   1.000
    O68     O    0.82790   0.56738   0.08004   1.000
    O69     O    0.78468   0.50480   0.10443   1.000
    O70     O    0.32788   0.56748   0.08032   1.000
    O71     O    0.28473   0.50491   0.10480   1.000
    O72     O    0.45132   0.89523   0.40026   1.000
    O73     O    0.95138   0.89515   0.40031   1.000
    O74     O    0.66123   0.51330   0.43267   1.000
    O75     O    0.73479   0.50656   0.43974   1.000
    O76     O    0.16124   0.51343   0.43279   1.000
    O77     O    0.23481   0.50672   0.43984   1.000
    O78     O    0.56107   0.51891   0.46544   1.000
    O79     O    0.61796   0.60000   0.49530   1.000
    O80     O    0.06107   0.51892   0.46548   1.000
    O81     O    0.11791   0.60005   0.49543   1.000
    O82     O    0.86794   0.39985   0.50453   1.000
    O83     O    0.36793   0.39997   0.50460   1.000
    O84     O    0.75963   0.49958   0.49109   1.000
    O85     O    0.25964   0.49969   0.49116   1.000
    O86     O    0.39440   0.94653   0.48123   1.000
    O87     O    0.49457   0.91965   0.48719   1.000
    O88     O    0.89440   0.94650   0.48125   1.000
    O89     O    0.99455   0.91970   0.48734   1.000
    O90     O    0.00963   0.50032   0.50882   1.000
    O91     O    0.50963   0.50035   0.50882   1.000
    O92     O    0.84294   0.00823   0.49936   1.000
    O93     O    0.34295   0.00826   0.49939   1.000
    O94     O    0.56813   0.93350   0.49390   1.000
    O95     O    0.59296   0.99163   0.50048   1.000
    O96     O    0.06810   0.93360   0.49411   1.000
    O97     O    0.09294   0.99170   0.50062   1.000
    O98     O    0.81811   0.06633   0.50587   1.000
    O99     O    0.74456   0.08020   0.51258   1.000
    O100    O    0.31809   0.06638   0.50596   1.000
    O101    O    0.24454   0.08025   0.51274   1.000
    O102    O    0.64441   0.05337   0.51862   1.000
    O103    O    0.14439   0.05342   0.51877   1.000
    O104    O    0.81106   0.48098   0.53444   1.000
    O105    O    0.31107   0.48110   0.53453   1.000
    O106    O    0.70135   0.10471   0.59956   1.000
    O107    O    0.20135   0.10472   0.59974   1.000
    O108    O    0.48480   0.49334   0.56016   1.000
    O109    O    0.98478   0.49329   0.55813   1.000
    O110    O    0.91122   0.48652   0.56517   1.000
    O111    O    0.41123   0.48662   0.56724   1.000
    O112    O    0.53471   0.49508   0.89515   1.000
    O113    O    0.03471   0.49491   0.89518   1.000
    O114    O    0.57789   0.43251   0.91962   1.000
    O115    O    0.65144   0.43958   0.93355   1.000
    O116    O    0.07790   0.43239   0.91968   1.000
    O117    O    0.15144   0.43952   0.93360   1.000
    O118    O    0.47772   0.46535   0.94647   1.000
    O119    O    0.97773   0.46525   0.94652   1.000
    N120    N    0.29584   0.46313   0.82871   1.000
    O121    O    0.28867   0.49686   0.91939   1.000
    O122    O    0.32329   0.48013   0.72151   1.000
    O123    O    0.24962   0.46081   0.87596   1.000
    N124    N    0.87924   0.63456   0.46332   1.000
    O125    O    0.83303   0.58512   0.46099   1.000
    O126    O    0.87207   0.57747   0.49691   1.000
    O127    O    0.90666   0.75873   0.48041   1.000
    N128    N    0.12926   0.36536   0.53663   1.000
    O129    O    0.12208   0.42244   0.50303   1.000
    O130    O    0.15667   0.24119   0.51957   1.000
    O131    O    0.08304   0.41480   0.53895   1.000
    N132    N    0.62925   0.36531   0.53651   1.000
    O133    O    0.58304   0.41477   0.53887   1.000
    O134    O    0.62207   0.42239   0.50293   1.000
    O135    O    0.65667   0.24114   0.51941   1.000
    N136    N    0.04584   0.53673   0.17128   1.000
    O137    O    0.99964   0.53902   0.12406   1.000
    O138    O    0.03868   0.50298   0.08060   1.000
    O139    O    0.07330   0.51980   0.27850   1.000
    N140    N    0.21249   0.82871   0.36574   1.000
    O141    O    0.16628   0.87595   0.41525   1.000
    O142    O    0.23994   0.72156   0.24146   1.000
    O143    O    0.20533   0.91934   0.42257   1.000
    N144    N    0.96250   0.17114   0.63430   1.000
    O145    O    0.91628   0.12394   0.58477   1.000
    O146    O    0.98995   0.27828   0.75858   1.000
    O147    O    0.95533   0.08054   0.57748   1.000
    N148    N    0.79587   0.46304   0.82867   1.000
    O149    O    0.78870   0.49678   0.91919   1.000
    O150    O    0.82331   0.48002   0.72144   1.000
    O151    O    0.74965   0.46077   0.87592   1.000
    N152    N    0.71256   0.82872   0.36561   1.000
    O153    O    0.66633   0.87592   0.41510   1.000
    O154    O    0.73999   0.72153   0.24120   1.000
    O155    O    0.70538   0.91932   0.42242   1.000
    N156    N    0.54583   0.53687   0.17126   1.000
    O157    O    0.49962   0.53917   0.12402   1.000
    O158    O    0.57329   0.51986   0.27846   1.000
    O159    O    0.53867   0.50313   0.08058   1.000
    N160    N    0.46251   0.17123   0.63423   1.000
    O161    O    0.41629   0.12400   0.58475   1.000
    O162    O    0.48996   0.27840   0.75851   1.000
    O163    O    0.45535   0.08060   0.57741   1.000
    N164    N    0.37929   0.63465   0.46339   1.000
    O165    O    0.33307   0.58521   0.46106   1.000
    O166    O    0.40670   0.75879   0.48046   1.000
    O167    O    0.37210   0.57757   0.49700   1.000
loop_
    _geom_bond_atom_site_label_1
    _geom_bond_atom_site_label_2
    _geom_bond_distance
    _geom_bond_site_symmetry_2
    _ccdc_geom_bond_type
    Zr39   O60       1.11248      .   S
    Zr1    O60       1.11248      .   S
    Zr39   O61       0.63846  1_554   S
    Zr13   O61       0.63846      .   S
    Zr38   O62       1.11394      .   S
    Zr0    O62       1.11394      .   S
    Zr38   O63       0.63847  1_554   S
    Zr12   O63       0.63847      .   S
    Zr18   O64       0.63282      .   S
    Zr48   O64       0.63282      .   S
    Zr18   O65       0.63848      .   S
    Zr50   O65       0.63848  1_556   S
    Zr19   O66       0.63282      .   S
    Zr49   O66       0.63282      .   S
    Zr19   O67       0.63848      .   S
    Zr51   O67       0.63848  1_556   S
    Zr1    O68       1.08690      .   S
    Zr49   O68       1.08690      .   S
    Zr1    O69       1.19806      .   S
    Zr25   O69       1.19806      .   S
    Zr0    O70       1.08726      .   S
    Zr48   O70       1.08726      .   S
    Zr0    O71       1.19305      .   S
    Zr24   O71       1.19305      .   S
    Zr28   O72       1.19335      .   S
    Zr4    O72       1.19335      .   S
    Zr29   O73       1.19333      .   S
    Zr5    O73       1.19333      .   S
    Zr53   O74       1.08689      .   S
    Zr3    O74       1.08689      .   S
    Zr53   O75       0.63281      .   S
    Zr21   O75       0.63281      .   S
    Zr52   O76       1.08673      .   S
    Zr2    O76       1.08673      .   S
    Zr52   O77       0.63280      .   S
    Zr20   O77       0.63280      .   S
    Zr3    O78       1.11402      .   S
    Zr43   O78       1.11402      .   S
    Zr3    O79       1.19319      .   S
    Zr27   O79       1.19319      .   S
    Zr2    O80       1.11395      .   S
    Zr42   O80       1.11395      .   S
    Zr2    O81       1.19315      .   S
    Zr26   O81       1.19315      .   S
    Zr33   O82       1.19316      .   S
    Zr9    O82       1.19316      .   S
    Zr32   O83       1.19318      .   S
    Zr8    O83       1.19318      .   S
    Zr21   O84       0.63845      .   S
    Zr55   O84       0.63845      .   S
    Zr20   O85       0.63847      .   S
    Zr54   O85       0.63847      .   S
    Zr4    O86       1.11362      .   S
    Zr46   O86       1.11362      .   S
    Zr4    O87       1.08717      .   S
    Zr57   O87       1.08717      .   S
    Zr5    O88       1.11356      .   S
    Zr47   O88       1.11356      .   S
    Zr5    O89       1.08711      .   S
    Zr56   O89       1.08711  1_455   S
    Zr42   O90       0.63851      .   S
    Zr14   O90       0.63851      .   S
    Zr43   O91       0.63850      .   S
    Zr15   O91       0.63850      .   S
    Zr47   O92       0.63834  1_565   S
    Zr17   O92       0.63834      .   S
    Zr46   O93       0.63823  1_565   S
    Zr16   O93       0.63823      .   S
    Zr23   O94       0.63282      .   S
    Zr57   O94       0.63282      .   S
    Zr23   O95       0.63837      .   S
    Zr59   O95       0.63837  1_545   S
    Zr22   O96       0.63282      .   S
    Zr56   O96       0.63282      .   S
    Zr22   O97       0.63837      .   S
    Zr58   O97       0.63837  1_545   S
    Zr45   O98       0.63284      .   S
    Zr17   O98       0.63284      .   S
    Zr45   O99       1.08715      .   S
    Zr11   O99       1.08715      .   S
    Zr44   O100      0.63282      .   S
    Zr16   O100      0.63282      .   S
    Zr44   O101      1.08707      .   S
    Zr10   O101      1.08707      .   S
    Zr59   O102      1.11350      .   S
    Zr11   O102      1.11350      .   S
    Zr58   O103      1.11351      .   S
    Zr10   O103      1.11351      .   S
    Zr55   O104      1.11395      .   S
    Zr9    O104      1.11395      .   S
    Zr54   O105      1.11398      .   S
    Zr8    O105      1.11398      .   S
    Zr11   O106      1.19336      .   S
    Zr35   O106      1.19336      .   S
    Zr10   O107      1.19327      .   S
    Zr34   O107      1.19327      .   S
    Zr15   O108      0.63279      .   S
    Zr40   O108      0.63279      .   S
    Zr14   O109      0.61133  1_455   S
    Zr41   O109      0.61133      .   S
    Zr9    O110      1.08074      .   S
    Zr41   O110      1.08074      .   S
    Zr8    O111      1.08679      .   S
    Zr40   O111      1.08679      .   S
    Zr31   O112      1.19313      .   S
    Zr7    O112      1.19313      .   S
    Zr30   O113      1.19322      .   S
    Zr6    O113      1.19322      .   S
    Zr37   O114      1.08726      .   S
    Zr7    O114      1.08726      .   S
    Zr37   O115      0.63283      .   S
    Zr13   O115      0.63283      .   S
    Zr36   O116      1.08719      .   S
    Zr6    O116      1.08719      .   S
    Zr36   O117      0.63282      .   S
    Zr12   O117      0.63282      .   S
    Zr7    O118      1.11387      .   S
    Zr50   O118      1.11387      .   S
    Zr6    O119      1.11376  1_455   S
    Zr51   O119      1.11376      .   S
    N120   O121      1.44800      .   S
    Zr0    O121      2.50577  1_554   S
    N120   O122      2.19251      .   S
    Zr8    O122      3.15685      .   S
    N120   O123      1.31009      .   S
    Zr12   O123      2.07614      .   S
    N124   O125      1.30884      .   S
    Zr21   O125      2.07483      .   S
    N124   O126      1.44796      .   S
    Zr9    O126      2.50602      .   S
    N124   O127      2.19196      .   S
    Zr5    O127      3.15534      .   S
    N128   O129      1.44790      .   S
    Zr2    O129      2.50588      .   S
    N128   O130      2.19204      .   S
    Zr10   O130      3.15605      .   S
    N128   O131      1.30875      .   S
    Zr14   O131      2.07471      .   S
    N132   O133      1.30873      .   S
    Zr15   O133      2.07473      .   S
    N132   O134      1.44765      .   S
    Zr3    O134      2.50556      .   S
    N132   O135      2.19195      .   S
    Zr11   O135      3.15561      .   S
    N136   O137      1.30937  1_455   S
    Zr19   O137      2.07548      .   S
    N136   O138      1.44791      .   S
    Zr6    O138      2.50548  1_556   S
    N136   O139      2.19218      .   S
    Zr2    O139      3.15658      .   S
    N140   O141      1.31010      .   S
    Zr22   O141      2.07611      .   S
    N140   O142      2.19457      .   S
    Zr0    O142      3.15911      .   S
    N140   O143      1.44761      .   S
    Zr10   O143      2.50536  1_545   S
    N144   O145      1.31020      .   S
    Zr17   O145      2.07621      .   S
    N144   O146      2.19465      .   S
    Zr6    O146      3.15895  1_455   S
    N144   O147      1.44727      .   S
    Zr5    O147      2.50491  1_565   S
    N148   O149      1.44536      .   S
    Zr1    O149      2.49729  1_554   S
    N148   O150      2.19263      .   S
    Zr9    O150      3.15724      .   S
    N148   O151      1.30991      .   S
    Zr13   O151      2.07593      .   S
    N152   O153      1.30999      .   S
    Zr23   O153      2.07602      .   S
    N152   O154      2.19611      .   S
    Zr1    O154      3.16309      .   S
    N152   O155      1.44735      .   S
    Zr11   O155      2.50490  1_545   S
    N156   O157      1.30997      .   S
    Zr18   O157      2.07597      .   S
    N156   O158      2.19244      .   S
    Zr3    O158      3.15678      .   S
    N156   O159      1.44808      .   S
    Zr7    O159      2.50594  1_556   S
    N160   O161      1.31009      .   S
    Zr16   O161      2.07611      .   S
    N160   O162      2.19481      .   S
    Zr7    O162      3.15938      .   S
    N160   O163      1.44764      .   S
    Zr4    O163      2.50542  1_565   S
    N164   O165      1.30890      .   S
    Zr20   O165      2.07492      .   S
    N164   O166      2.19165      .   S
    Zr4    O166      3.15538      .   S
    N164   O167      1.44797      .   S
    Zr8    O167      2.50592      .   S
