# CIF file generated by openbabel 2.4.90, see http://openbabel.sf.net
data_I
_chemical_name_common ''
_cell_length_a 13.063
_cell_length_b 13.036
_cell_length_c 17.836
_cell_angle_alpha 98.267
_cell_angle_beta 98.318
_cell_angle_gamma 118.299
_space_group_name_H-M_alt 'P 1'
_space_group_name_Hall 'P 1'
loop_
    _symmetry_equiv_pos_as_xyz
    x,y,z
loop_
    _atom_site_label
    _atom_site_type_symbol
    _atom_site_fract_x
    _atom_site_fract_y
    _atom_site_fract_z
    _atom_site_occupancy
    Zr0     Zr   0.19351   0.33305   0.95888   1.000
    Zr1     Zr   0.66690   0.80589   0.54095   1.000
    Zr2     Zr   0.80648   0.66697   0.04114   1.000
    Zr3     Zr   0.33309   0.19413   0.45908   1.000
    Zr4     Zr   0.73911   0.26051   0.24994   1.000
    Zr5     Zr   0.26088   0.73951   0.75009   1.000
    N6      N    0.71839   0.02594   0.94918   1.000
    O7      O    0.91280   0.14717   0.94499   1.000
    O8      O    0.74269   0.87168   0.98910   1.000
    O9      O    0.73588   0.13536   0.07218   1.000
    O10     O    0.53434   0.91276   0.85928   1.000
    N11     N    0.97412   0.28157   0.55066   1.000
    O12     O    0.12833   0.25755   0.51086   1.000
    O13     O    0.86455   0.26384   0.42766   1.000
    O14     O    0.08747   0.46576   0.64069   1.000
    O15     O    0.85280   0.08694   0.55487   1.000
    N16     N    0.28160   0.97408   0.05084   1.000
    O17     O    0.08719   0.85285   0.05503   1.000
    O18     O    0.25730   0.12834   0.01092   1.000
    O19     O    0.26410   0.86466   0.92784   1.000
    O20     O    0.46565   0.08726   0.14073   1.000
    N21     N    0.02587   0.71845   0.44935   1.000
    O22     O    0.14719   0.91308   0.44515   1.000
    O23     O    0.87166   0.74247   0.48914   1.000
    O24     O    0.13544   0.73618   0.57236   1.000
    O25     O    0.91252   0.53426   0.35931   1.000
    N26     N    0.63101   0.36912   0.75022   1.000
    O27     O    0.70873   0.48599   0.87317   1.000
    O28     O    0.51400   0.29169   0.62722   1.000
    N29     N    0.54893   0.45165   0.25009   1.000
    O30     O    0.65207   0.53400   0.16073   1.000
    O31     O    0.46627   0.34863   0.33949   1.000
    N32     N    0.36899   0.63091   0.24979   1.000
    O33     O    0.29126   0.51403   0.12684   1.000
    O34     O    0.48599   0.70833   0.37280   1.000
    N35     N    0.45106   0.54837   0.74992   1.000
    O36     O    0.34791   0.46602   0.83928   1.000
    O37     O    0.53372   0.65140   0.66053   1.000
loop_
    _geom_bond_atom_site_label_1
    _geom_bond_atom_site_label_2
    _geom_bond_distance
    _geom_bond_site_symmetry_2
    _ccdc_geom_bond_type
    N6     O7        2.28834      .   S
    Zr0    O7        3.24325  1_455   S
    N6     O8        2.36705  1_545   S
    Zr2    O8        3.35782  1_554   S
    N6     O9        2.35503  1_556   S
    Zr4    O9        3.33522      .   S
    N6     O10       2.31713  1_545   S
    Zr5    O10       3.27525      .   S
    N11    O12       2.36812  1_655   S
    Zr3    O12       3.35902      .   S
    N11    O13       2.35521      .   S
    Zr4    O13       3.33535      .   S
    N11    O14       2.31702  1_655   S
    Zr5    O14       3.27531      .   S
    N11    O15       2.28725      .   S
    Zr1    O15       3.24195  1_565   S
    N16    O17       2.28836      .   S
    Zr2    O17       3.24326  1_655   S
    N16    O18       2.36703  1_565   S
    Zr0    O18       3.35783  1_556   S
    N16    O19       2.35494  1_554   S
    Zr5    O19       3.33507      .   S
    N16    O20       2.31705  1_565   S
    Zr4    O20       3.27541      .   S
    N21    O22       2.28720      .   S
    Zr3    O22       3.24191  1_545   S
    N21    O23       2.36805  1_455   S
    Zr1    O23       3.35917      .   S
    N21    O24       2.35531      .   S
    Zr5    O24       3.33553      .   S
    N21    O25       2.31713  1_455   S
    Zr4    O25       3.27512      .   S
    N26    O27       2.25597      .   S
    Zr2    O27       3.18995  1_554   S
    N26    O28       2.25788      .   S
    Zr3    O28       3.19363      .   S
    N29    O30       2.29132      .   S
    Zr2    O30       3.25821      .   S
    N29    O31       2.29154      .   S
    Zr3    O31       3.25869      .   S
    N32    O33       2.25590      .   S
    Zr0    O33       3.18994  1_556   S
    N32    O34       2.25796      .   S
    Zr1    O34       3.19377      .   S
    N35    O36       2.29133      .   S
    Zr0    O36       3.25835      .   S
    N35    O37       2.29142      .   S
    Zr1    O37       3.25855      .   S
