# CIF file generated by openbabel 2.4.90, see http://openbabel.sf.net
data_I
_chemical_name_common ''
_cell_length_a 13.063
_cell_length_b 13.036
_cell_length_c 17.836
_cell_angle_alpha 98.267
_cell_angle_beta 98.318
_cell_angle_gamma 118.299
_space_group_name_H-M_alt 'P 1'
_space_group_name_Hall 'P 1'
loop_
    _symmetry_equiv_pos_as_xyz
    x,y,z
loop_
    _atom_site_label
    _atom_site_type_symbol
    _atom_site_fract_x
    _atom_site_fract_y
    _atom_site_fract_z
    _atom_site_occupancy
    C0      C    0.19351   0.33305   0.95888   1.000
    C1      C    0.66690   0.80589   0.54095   1.000
    C2      C    0.80648   0.66697   0.04114   1.000
    C3      C    0.33309   0.19413   0.45908   1.000
    C4      C    0.73911   0.26051   0.24994   1.000
    C5      C    0.26088   0.73951   0.75009   1.000
    C6      C    0.71682   0.02282   0.95246   1.000
    C7      C    0.97732   0.28318   0.54731   1.000
    C8      C    0.28316   0.97720   0.04757   1.000
    C9      C    0.02267   0.71684   0.45271   1.000
    C10     C    0.78374   0.95313   0.81245   1.000
    C11     C    0.01921   0.11339   0.81170   1.000
    C12     C    0.95608   0.23750   0.02089   1.000
    C13     C    0.57708   0.68933   0.06871   1.000
    C14     C    0.54171   0.87090   0.03000   1.000
    C15     C    0.84612   0.89250   0.95981   1.000
    C16     C    0.76021   0.05868   0.12133   1.000
    C17     C    0.75557   0.37723   0.10553   1.000
    C18     C    0.70674   0.24441   0.95749   1.000
    C19     C    0.67193   0.13496   0.83035   1.000
    C20     C    0.45894   0.98869   0.71904   1.000
    C21     C    0.49037   0.79716   0.88446   1.000
    C22     C    0.18526   0.45335   0.26181   1.000
    C23     C    0.39490   0.65807   0.11767   1.000
    C24     C    0.27240   0.35658   0.67133   1.000
    C25     C    0.49694   0.58766   0.89475   1.000
    C26     C    0.04659   0.21591   0.68740   1.000
    C27     C    0.88587   0.98031   0.68837   1.000
    C28     C    0.76297   0.04365   0.47880   1.000
    C29     C    0.31002   0.42349   0.43103   1.000
    C30     C    0.12841   0.45841   0.46936   1.000
    C31     C    0.10786   0.15403   0.54025   1.000
    C32     C    0.94095   0.23928   0.37837   1.000
    C33     C    0.62316   0.24392   0.39440   1.000
    C34     C    0.75642   0.29360   0.54244   1.000
    C35     C    0.86556   0.32830   0.66941   1.000
    C36     C    0.01207   0.54125   0.78098   1.000
    C37     C    0.20285   0.50969   0.61545   1.000
    C38     C    0.54741   0.81379   0.23783   1.000
    C39     C    0.34150   0.60527   0.38196   1.000
    C40     C    0.64301   0.72673   0.82853   1.000
    C41     C    0.41174   0.50248   0.60512   1.000
    C42     C    0.21625   0.04688   0.18758   1.000
    C43     C    0.98078   0.88662   0.18833   1.000
    C44     C    0.04391   0.76253   0.97913   1.000
    C45     C    0.42291   0.31070   0.93130   1.000
    C46     C    0.45828   0.12913   0.96990   1.000
    C47     C    0.15387   0.10752   0.04021   1.000
    C48     C    0.23978   0.94135   0.87870   1.000
    C49     C    0.24441   0.62279   0.89449   1.000
    C50     C    0.29324   0.75561   0.04253   1.000
    C51     C    0.32807   0.86505   0.16967   1.000
    C52     C    0.54105   0.01129   0.28098   1.000
    C53     C    0.50961   0.20287   0.11558   1.000
    C54     C    0.81472   0.54668   0.73822   1.000
    C55     C    0.60510   0.34194   0.88235   1.000
    C56     C    0.72759   0.64344   0.32869   1.000
    C57     C    0.50304   0.41237   0.10528   1.000
    C58     C    0.95339   0.78412   0.31258   1.000
    C59     C    0.11411   0.01972   0.31166   1.000
    C60     C    0.23703   0.95637   0.52122   1.000
    C61     C    0.68997   0.57654   0.56900   1.000
    C62     C    0.87158   0.54162   0.53067   1.000
    C63     C    0.89213   0.84599   0.45970   1.000
    C64     C    0.05904   0.76075   0.62165   1.000
    C65     C    0.37683   0.75610   0.60562   1.000
    C66     C    0.24356   0.70642   0.45750   1.000
    C67     C    0.13443   0.67173   0.33061   1.000
    C68     C    0.98793   0.45878   0.21904   1.000
    C69     C    0.79714   0.49033   0.38458   1.000
    C70     C    0.45260   0.18622   0.76219   1.000
    C71     C    0.65848   0.39476   0.61807   1.000
    C72     C    0.35697   0.27329   0.17150   1.000
    C73     C    0.58825   0.49754   0.39491   1.000
    C74     C    0.85249   0.03469   0.85519   1.000
    C75     C    0.96852   0.11259   0.85480   1.000
    C76     C    0.93824   0.18123   0.96380   1.000
    C77     C    0.62770   0.75888   0.04037   1.000
    C78     C    0.60964   0.84827   0.02142   1.000
    C79     C    0.76862   0.86135   0.98449   1.000
    C80     C    0.75236   0.12740   0.09779   1.000
    C81     C    0.74955   0.29096   0.08740   1.000
    C82     C    0.72333   0.22436   0.01325   1.000
    C83     C    0.60190   0.04411   0.82604   1.000
    C84     C    0.49700   0.97029   0.77010   1.000
    C85     C    0.50976   0.86871   0.85489   1.000
    C86     C    0.19308   0.45081   0.11150   1.000
    C87     C    0.26376   0.53390   0.25734   1.000
    C88     C    0.27989   0.54839   0.18280   1.000
    C89     C    0.38204   0.65014   0.17600   1.000
    C90     C    0.28050   0.38655   0.82528   1.000
    C91     C    0.37266   0.46659   0.78676   1.000
    C92     C    0.35183   0.44012   0.70518   1.000
    C93     C    0.47899   0.56965   0.83130   1.000
    C94     C    0.96508   0.14717   0.64470   1.000
    C95     C    0.88698   0.03104   0.64517   1.000
    C96     C    0.81894   0.06147   0.53600   1.000
    C97     C    0.24067   0.37272   0.45939   1.000
    C98     C    0.15127   0.39055   0.47818   1.000
    C99     C    0.13873   0.23158   0.51545   1.000
    C100    C    0.87248   0.24726   0.40197   1.000
    C101    C    0.70933   0.25006   0.41248   1.000
    C102    C    0.77614   0.27670   0.48661   1.000
    C103    C    0.95632   0.39831   0.67378   1.000
    C104    C    0.03030   0.50319   0.72984   1.000
    C105    C    0.13148   0.49035   0.64501   1.000
    C106    C    0.54966   0.80621   0.38799   1.000
    C107    C    0.46650   0.73568   0.24228   1.000
    C108    C    0.45187   0.71967   0.31682   1.000
    C109    C    0.34960   0.61806   0.32361   1.000
    C110    C    0.61314   0.71875   0.67450   1.000
    C111    C    0.53296   0.62663   0.71310   1.000
    C112    C    0.55939   0.64742   0.79468   1.000
    C113    C    0.42974   0.52042   0.66855   1.000
    C114    C    0.14750   0.96532   0.14484   1.000
    C115    C    0.03147   0.88743   0.14520   1.000
    C116    C    0.06175   0.81879   0.03623   1.000
    C117    C    0.37229   0.24114   0.95966   1.000
    C118    C    0.39035   0.15175   0.97861   1.000
    C119    C    0.23136   0.13868   0.01554   1.000
    C120    C    0.24763   0.87262   0.90223   1.000
    C121    C    0.25043   0.70906   0.91261   1.000
    C122    C    0.27665   0.77566   0.98677   1.000
    C123    C    0.39809   0.95591   0.17390   1.000
    C124    C    0.50300   0.02973   0.22992   1.000
    C125    C    0.49023   0.13131   0.14514   1.000
    C126    C    0.80690   0.54922   0.88845   1.000
    C127    C    0.73622   0.46614   0.74268   1.000
    C128    C    0.72010   0.45163   0.81722   1.000
    C129    C    0.61796   0.34988   0.82401   1.000
    C130    C    0.71949   0.61346   0.17470   1.000
    C131    C    0.62733   0.53344   0.21326   1.000
    C132    C    0.64816   0.55990   0.29485   1.000
    C133    C    0.52100   0.43037   0.16871   1.000
    C134    C    0.03490   0.85286   0.35533   1.000
    C135    C    0.11300   0.96898   0.35486   1.000
    C136    C    0.18105   0.93856   0.46402   1.000
    C137    C    0.75932   0.62730   0.54064   1.000
    C138    C    0.84873   0.60947   0.52180   1.000
    C139    C    0.86126   0.76844   0.48458   1.000
    C140    C    0.12751   0.75277   0.59806   1.000
    C141    C    0.29066   0.74996   0.58754   1.000
    C142    C    0.22385   0.72332   0.51341   1.000
    C143    C    0.04367   0.60171   0.32625   1.000
    C144    C    0.96969   0.49684   0.27018   1.000
    C145    C    0.86851   0.50967   0.35501   1.000
    C146    C    0.45034   0.19380   0.61203   1.000
    C147    C    0.53350   0.26432   0.75770   1.000
    C148    C    0.54813   0.28035   0.68320   1.000
    C149    C    0.65040   0.38196   0.67641   1.000
    C150    C    0.38685   0.28127   0.32546   1.000
    C151    C    0.46704   0.37338   0.28693   1.000
    C152    C    0.44059   0.35260   0.20535   1.000
    C153    C    0.57025   0.47961   0.33148   1.000
    C154    C    0.02093   0.20376   0.92271   1.000
    C155    C    0.83350   0.07901   0.92474   1.000
    C156    C    0.72751   0.76789   0.01689   1.000
    C157    C    0.69986   0.91381   0.98564   1.000
    C158    C    0.76766   0.22907   0.14044   1.000
    C159    C    0.72431   0.11970   0.01977   1.000
    C160    C    0.60961   0.97951   0.88032   1.000
    C161    C    0.43972   0.85963   0.78866   1.000
    C162    C    0.79606   0.97873   0.57722   1.000
    C163    C    0.92116   0.16624   0.57504   1.000
    C164    C    0.23200   0.27293   0.48306   1.000
    C165    C    0.08606   0.30019   0.51409   1.000
    C166    C    0.77084   0.23172   0.35938   1.000
    C167    C    0.88055   0.27573   0.48001   1.000
    C168    C    0.02072   0.39056   0.61947   1.000
    C169    C    0.14077   0.56040   0.71134   1.000
    C170    C    0.97906   0.79626   0.07732   1.000
    C171    C    0.16649   0.92101   0.07529   1.000
    C172    C    0.27248   0.23213   0.98314   1.000
    C173    C    0.30012   0.08621   0.01439   1.000
    C174    C    0.23233   0.77095   0.85958   1.000
    C175    C    0.27568   0.88032   0.98025   1.000
    C176    C    0.39038   0.02051   0.11970   1.000
    C177    C    0.56027   0.14038   0.21130   1.000
    C178    C    0.20393   0.02130   0.42281   1.000
    C179    C    0.07883   0.83378   0.42499   1.000
    C180    C    0.76799   0.72710   0.51690   1.000
    C181    C    0.91393   0.69984   0.48590   1.000
    C182    C    0.22915   0.76830   0.64064   1.000
    C183    C    0.11944   0.72430   0.52002   1.000
    C184    C    0.97926   0.60946   0.38055   1.000
    C185    C    0.85922   0.43962   0.28860   1.000
    C186    C    0.09445   0.36957   0.11681   1.000
    C187    C    0.23356   0.46126   0.04892   1.000
    C188    C    0.19700   0.28465   0.78780   1.000
    C189    C    0.29603   0.43429   0.89840   1.000
    C190    C    0.63122   0.90469   0.38265   1.000
    C191    C    0.53909   0.76562   0.45065   1.000
    C192    C    0.71474   0.80251   0.71209   1.000
    C193    C    0.56586   0.70295   0.60132   1.000
    C194    C    0.90551   0.63049   0.88320   1.000
    C195    C    0.76642   0.53876   0.95111   1.000
    C196    C    0.80300   0.71537   0.21214   1.000
    C197    C    0.70395   0.56573   0.10160   1.000
    C198    C    0.36880   0.09531   0.61737   1.000
    C199    C    0.46091   0.23440   0.54937   1.000
    C200    C    0.28525   0.19752   0.28794   1.000
    C201    C    0.43414   0.29708   0.39871   1.000
    O202    O    0.72382   0.17203   0.01651   1.000
    O203    O    0.73644   0.25766   0.05033   1.000
    O204    O    0.71503   0.23439   0.98537   1.000
    O205    O    0.26574   0.11244   0.01497   1.000
    O206    O    0.29164   0.03170   0.03098   1.000
    O207    O    0.34523   0.11898   0.99650   1.000
    O208    O    0.19262   0.12310   0.02788   1.000
    O209    O    0.25192   0.18540   0.99934   1.000
    O210    O    0.67760   0.76338   0.02863   1.000
    O211    O    0.76699   0.71743   0.02902   1.000
    O212    O    0.74807   0.81462   0.00069   1.000
    O213    O    0.73833   0.12355   0.05878   1.000
    O214    O    0.72056   0.07126   0.98611   1.000
    O215    O    0.94716   0.20937   0.99235   1.000
    O216    O    0.57568   0.85958   0.02571   1.000
    O217    O    0.61867   0.80357   0.03090   1.000
    O218    O    0.65475   0.88104   0.00353   1.000
    O219    O    0.11412   0.86990   0.05576   1.000
    O220    O    0.02040   0.80753   0.05678   1.000
    O221    O    0.05283   0.79066   0.00768   1.000
    O222    O    0.60239   0.72410   0.05454   1.000
    O223    O    0.89277   0.73161   0.05923   1.000
    O224    O    0.75522   0.61635   0.07137   1.000
    O225    O    0.78645   0.60286   0.99612   1.000
    O226    O    0.28495   0.76563   0.01465   1.000
    O227    O    0.22482   0.94910   0.06143   1.000
    O228    O    0.33677   0.99885   0.08363   1.000
    O229    O    0.27942   0.92876   0.01391   1.000
    O230    O    0.21332   0.45603   0.08021   1.000
    O231    O    0.21353   0.39716   0.00390   1.000
    O232    O    0.15700   0.94316   0.11006   1.000
    O233    O    0.00526   0.84184   0.11126   1.000
    O234    O    0.75256   0.33410   0.09647   1.000
    O235    O    0.75860   0.26002   0.11392   1.000
    O236    O    0.75628   0.09304   0.10956   1.000
    O237    O    0.76001   0.17824   0.11912   1.000
    O238    O    0.71172   0.58960   0.13815   1.000
    O239    O    0.51202   0.42137   0.13699   1.000
    O240    O    0.14376   0.41019   0.11416   1.000
    O241    O    0.23649   0.49960   0.14715   1.000
    O242    O    0.49992   0.16709   0.13036   1.000
    O243    O    0.38847   0.65410   0.14683   1.000
    O244    O    0.44030   0.07591   0.13242   1.000
    O245    O    0.39424   0.98821   0.14680   1.000
    O246    O    0.75338   0.24479   0.19519   1.000
    O247    O    0.08949   0.92637   0.14502   1.000
    O248    O    0.18188   0.00610   0.16621   1.000
    O249    O    0.52525   0.13585   0.17822   1.000
    O250    O    0.00613   0.88702   0.16676   1.000
    O251    O    0.48080   0.39149   0.18703   1.000
    O252    O    0.57416   0.48191   0.19099   1.000
    O253    O    0.36308   0.91048   0.17178   1.000
    O254    O    0.39878   0.31295   0.18843   1.000
    O255    O    0.45054   0.99282   0.20191   1.000
    O256    O    0.76125   0.66442   0.19342   1.000
    O257    O    0.67341   0.57345   0.19398   1.000
    O258    O    0.33096   0.59927   0.17940   1.000
    O259    O    0.42427   0.69291   0.20914   1.000
    O260    O    0.27183   0.54115   0.22007   1.000
    O261    O    0.45382   0.36299   0.24614   1.000
    O262    O    0.53163   0.08506   0.22061   1.000
    O263    O    0.64969   0.20045   0.23062   1.000
    O264    O    0.63774   0.54667   0.25406   1.000
    O265    O    0.97881   0.47781   0.24461   1.000
    O266    O    0.52202   0.02051   0.25545   1.000
    O267    O    0.50696   0.77473   0.24006   1.000
    O268    O    0.45918   0.72768   0.27955   1.000
    O269    O    0.79917   0.35007   0.26927   1.000
    O270    O    0.75497   0.24612   0.30466   1.000
    O271    O    0.22451   0.49363   0.25958   1.000
    O272    O    0.30668   0.57598   0.29047   1.000
    O273    O    0.91446   0.46823   0.27939   1.000
    O274    O    0.00668   0.54927   0.29822   1.000
    O275    O    0.42695   0.32733   0.30619   1.000
    O276    O    0.51865   0.42650   0.30920   1.000
    O277    O    0.33605   0.23940   0.30670   1.000
    O278    O    0.86387   0.47465   0.32181   1.000
    O279    O    0.68788   0.60167   0.31177   1.000
    O280    O    0.60921   0.51975   0.31317   1.000
    O281    O    0.11356   0.99435   0.33326   1.000
    O282    O    0.99415   0.81849   0.33396   1.000
    O283    O    0.40073   0.66887   0.32022   1.000
    O284    O    0.50076   0.76294   0.35241   1.000
    O285    O    0.34555   0.61167   0.35279   1.000
    O286    O    0.41049   0.28918   0.36209   1.000
    O287    O    0.08905   0.63672   0.32843   1.000
    O288    O    0.01147   0.60559   0.35340   1.000
    O289    O    0.57925   0.48858   0.36319   1.000
    O290    O    0.07395   0.91092   0.35509   1.000
    O291    O    0.15847   0.99514   0.38883   1.000
    O292    O    0.92389   0.55956   0.36778   1.000
    O293    O    0.83283   0.50000   0.36979   1.000
    O294    O    0.05687   0.84332   0.39016   1.000
    O295    O    0.82166   0.23949   0.38067   1.000
    O296    O    0.74008   0.24089   0.38593   1.000
    O297    O    0.90672   0.24327   0.39017   1.000
    O298    O    0.00097   0.66315   0.41663   1.000
    O299    O    0.59044   0.85545   0.38532   1.000
    O300    O    0.54437   0.78591   0.41932   1.000
    O301    O    0.66624   0.24699   0.40344   1.000
    O302    O    0.38362   0.24560   0.42890   1.000
    O303    O    0.87652   0.26149   0.44099   1.000
    O304    O    0.74273   0.26338   0.44955   1.000
    O305    O    0.26851   0.10771   0.44095   1.000
    O306    O    0.19249   0.97993   0.44342   1.000
    O307    O    0.05075   0.77531   0.43885   1.000
    O308    O    0.12994   0.88617   0.44450   1.000
    O309    O    0.27535   0.39811   0.44521   1.000
    O310    O    0.60299   0.78575   0.49580   1.000
    O311    O    0.96830   0.70834   0.46930   1.000
    O312    O    0.07105   0.72057   0.48636   1.000
    O313    O    0.23370   0.71487   0.48546   1.000
    O314    O    0.28255   0.23353   0.47107   1.000
    O315    O    0.39700   0.21426   0.50423   1.000
    O316    O    0.19597   0.38164   0.46879   1.000
    O317    O    0.23634   0.32283   0.47122   1.000
    O318    O    0.87669   0.80722   0.47214   1.000
    O319    O    0.20904   0.94747   0.49262   1.000
    O320    O    0.13984   0.42448   0.47377   1.000
    O321    O    0.11866   0.34537   0.49614   1.000
    O322    O    0.79096   0.05256   0.50740   1.000
    O323    O    0.82835   0.27621   0.48331   1.000
    O324    O    0.92894   0.27945   0.51366   1.000
    O325    O    0.18537   0.25225   0.49926   1.000
    O326    O    0.88760   0.73414   0.48524   1.000
    O327    O    0.81462   0.74777   0.50074   1.000
    O328    O    0.88133   0.65466   0.50385   1.000
    O329    O    0.76628   0.28515   0.51453   1.000
    O330    O    0.17164   0.72381   0.51672   1.000
    O331    O    0.25725   0.73664   0.55048   1.000
    O332    O    0.11239   0.26588   0.51477   1.000
    O333    O    0.03169   0.29168   0.53070   1.000
    O334    O    0.12330   0.19280   0.52785   1.000
    O335    O    0.76366   0.67720   0.52877   1.000
    O336    O    0.71744   0.76649   0.52893   1.000
    O337    O    0.12347   0.73853   0.55904   1.000
    O338    O    0.86016   0.57555   0.52624   1.000
    O339    O    0.80402   0.61839   0.53122   1.000
    O340    O    0.87005   0.11386   0.55552   1.000
    O341    O    0.80750   0.02010   0.55661   1.000
    O342    O    0.72465   0.60192   0.55482   1.000
    O343    O    0.73148   0.89231   0.55908   1.000
    O344    O    0.61638   0.75442   0.57113   1.000
    O345    O    0.94924   0.22471   0.56117   1.000
    O346    O    0.99902   0.33687   0.58339   1.000
    O347    O    0.45562   0.21410   0.58070   1.000
    O348    O    0.94312   0.15671   0.60987   1.000
    O349    O    0.84152   0.00489   0.61119   1.000
    O350    O    0.33374   0.75303   0.59658   1.000
    O351    O    0.25991   0.75913   0.61409   1.000
    O352    O    0.09328   0.75676   0.60986   1.000
    O353    O    0.17833   0.76054   0.61935   1.000
    O354    O    0.58950   0.71085   0.63791   1.000
    O355    O    0.42074   0.51145   0.63684   1.000
    O356    O    0.40957   0.14456   0.61470   1.000
    O357    O    0.49924   0.23708   0.64762   1.000
    O358    O    0.16716   0.50002   0.63023   1.000
    O359    O    0.65444   0.38836   0.64724   1.000
    O360    O    0.07610   0.44046   0.63224   1.000
    O361    O    0.98852   0.39444   0.64663   1.000
    O362    O    0.24502   0.75391   0.69537   1.000
    O363    O    0.92603   0.08911   0.64494   1.000
    O364    O    0.00583   0.18154   0.66605   1.000
    O365    O    0.13612   0.52538   0.67817   1.000
    O366    O    0.88643   0.00568   0.66677   1.000
    O367    O    0.39079   0.48027   0.68687   1.000
    O368    O    0.48135   0.57353   0.69082   1.000
    O369    O    0.91094   0.36331   0.67160   1.000
    O370    O    0.31212   0.39835   0.68825   1.000
    O371    O    0.99331   0.45075   0.70181   1.000
    O372    O    0.66394   0.76063   0.69329   1.000
    O373    O    0.57305   0.67269   0.69380   1.000
    O374    O    0.59926   0.33115   0.67980   1.000
    O375    O    0.69331   0.42405   0.70954   1.000
    O376    O    0.54082   0.27234   0.72045   1.000
    O377    O    0.36224   0.45335   0.74597   1.000
    O378    O    0.08553   0.53180   0.72059   1.000
    O379    O    0.20082   0.64996   0.73072   1.000
    O380    O    0.54617   0.63703   0.75389   1.000
    O381    O    0.47797   0.97949   0.74457   1.000
    O382    O    0.02118   0.52222   0.75541   1.000
    O383    O    0.77547   0.50641   0.74045   1.000
    O384    O    0.72816   0.45888   0.77995   1.000
    O385    O    0.35030   0.79957   0.76937   1.000
    O386    O    0.24660   0.75523   0.80484   1.000
    O387    O    0.49305   0.22527   0.75995   1.000
    O388    O    0.57573   0.30710   0.79086   1.000
    O389    O    0.46836   0.91496   0.77938   1.000
    O390    O    0.54945   0.00720   0.79807   1.000
    O391    O    0.32658   0.42657   0.80602   1.000
    O392    O    0.42582   0.51812   0.80903   1.000
    O393    O    0.23875   0.33560   0.80654   1.000
    O394    O    0.47474   0.86417   0.82178   1.000
    O395    O    0.60120   0.68708   0.81161   1.000
    O396    O    0.51919   0.60854   0.81299   1.000
    O397    O    0.99387   0.11299   0.83325   1.000
    O398    O    0.81811   0.99391   0.83382   1.000
    O399    O    0.66903   0.40076   0.82061   1.000
    O400    O    0.76350   0.50043   0.85284   1.000
    O401    O    0.61153   0.34591   0.85318   1.000
    O402    O    0.28827   0.41042   0.86184   1.000
    O403    O    0.63692   0.08954   0.82820   1.000
    O404    O    0.60576   0.01181   0.85318   1.000
    O405    O    0.48796   0.57865   0.86303   1.000
    O406    O    0.91050   0.07364   0.85500   1.000
    O407    O    0.99473   0.15817   0.88876   1.000
    O408    O    0.55968   0.92411   0.86761   1.000
    O409    O    0.50007   0.83293   0.86967   1.000
    O410    O    0.84299   0.05685   0.88997   1.000
    O411    O    0.23998   0.82179   0.88091   1.000
    O412    O    0.24138   0.74000   0.88610   1.000
    O413    O    0.24370   0.90699   0.89046   1.000
    O414    O    0.66322   0.00117   0.91639   1.000
    O415    O    0.85621   0.58986   0.88583   1.000
    O416    O    0.78666   0.54399   0.91978   1.000
    O417    O    0.24742   0.66592   0.90355   1.000
    O418    O    0.24477   0.38367   0.92864   1.000
    O419    O    0.26166   0.87647   0.94124   1.000
    O420    O    0.26354   0.74236   0.94969   1.000
    O421    O    0.10722   0.26841   0.94080   1.000
    O422    O    0.97958   0.19250   0.94326   1.000
    O423    O    0.77516   0.05092   0.93860   1.000
    O424    O    0.88587   0.13012   0.94427   1.000
    O425    O    0.39760   0.27592   0.94548   1.000
    O426    O    0.70834   0.96832   0.96905   1.000
    O427    O    0.23299   0.28259   0.97101   1.000
    O428    O    0.38132   0.19645   0.96913   1.000
    O429    O    0.32238   0.23664   0.97140   1.000
    O430    O    0.80737   0.87692   0.97215   1.000
    O431    O    0.42431   0.14044   0.97426   1.000
    O432    O    0.27617   0.82799   0.98351   1.000
    O433    O    0.73424   0.88758   0.98506   1.000
loop_
    _geom_bond_atom_site_label_1
    _geom_bond_atom_site_label_2
    _geom_bond_distance
    _geom_bond_site_symmetry_2
    _ccdc_geom_bond_type
    C82    O202      0.69588      .   S
    C159   O202      0.69588      .   S
    C82    O203      0.68501      .   S
    C81    O203      0.68501      .   S
    C82    O204      0.54093  1_554   S
    C18    O204      0.54093      .   S
    C173   O205      0.68168      .   S
    C119   O205      0.68168      .   S
    C173   O206      0.77460      .   S
    C8     O206      0.77460  1_565   S
    C173   O207      0.69749  1_554   S
    C118   O207      0.69749      .   S
    C119   O208      0.54171      .   S
    C47    O208      0.54171      .   S
    C119   O209      0.66679  1_554   S
    C172   O209      0.66679      .   S
    C156   O210      0.69210      .   S
    C77    O210      0.69210      .   S
    C156   O211      1.03726      .   S
    C2     O211      1.03726      .   S
    C156   O212      0.66679      .   S
    C79    O212      0.66679  1_556   S
    C159   O213      0.68158      .   S
    C80    O213      0.68158      .   S
    C159   O214      0.78402  1_554   S
    C6     O214      0.78402      .   S
    C12    O215      0.54400  1_554   S
    C76    O215      0.54400      .   S
    C78    O216      0.54140      .   S
    C14    O216      0.54140      .   S
    C78    O217      0.68532      .   S
    C77    O217      0.68532      .   S
    C78    O218      0.69749      .   S
    C157   O218      0.69749  1_556   S
    C116   O219      0.68219      .   S
    C171   O219      0.68219      .   S
    C116   O220      0.66712      .   S
    C170   O220      0.66712  1_655   S
    C116   O221      0.54405      .   S
    C44    O221      0.54405  1_556   S
    C77    O222      0.54196      .   S
    C13    O222      0.54196      .   S
    C2     O223      1.00040      .   S
    C170   O223      1.00040      .   S
    C2     O224      0.98101      .   S
    C197   O224      0.98101      .   S
    C2     O225      0.97488  1_554   S
    C195   O225      0.97488      .   S
    C50    O226      0.54094      .   S
    C122   O226      0.54094  1_556   S
    C8     O227      0.76935      .   S
    C171   O227      0.76935      .   S
    C8     O228      0.78351      .   S
    C176   O228      0.78351  1_545   S
    C8     O229      0.78407      .   S
    C175   O229      0.78407  1_556   S
    C187   O230      0.65005      .   S
    C86    O230      0.65005      .   S
    C187   O231      0.97493      .   S
    C0     O231      0.97493  1_556   S
    C171   O232      0.69871      .   S
    C114   O232      0.69871      .   S
    C170   O233      0.69316  1_655   S
    C115   O233      0.69316      .   S
    C81    O234      0.54305      .   S
    C17    O234      0.54305      .   S
    C81    O235      0.69598      .   S
    C158   O235      0.69598      .   S
    C80    O236      0.54137      .   S
    C16    O236      0.54137      .   S
    C80    O237      0.66897      .   S
    C158   O237      0.66897      .   S
    C197   O238      0.65167      .   S
    C130   O238      0.65167      .   S
    C57    O239      0.54422      .   S
    C133   O239      0.54422      .   S
    C86    O240      0.62468      .   S
    C186   O240      0.62468      .   S
    C86    O241      0.75354      .   S
    C88    O241      0.75354      .   S
    C53    O242      0.54048      .   S
    C125   O242      0.54048      .   S
    C23    O243      0.54460      .   S
    C89    O243      0.54460      .   S
    C176   O244      0.67960      .   S
    C125   O244      0.67960      .   S
    C176   O245      0.69644  1_545   S
    C123   O245      0.69644      .   S
    C158   O246      1.03039      .   S
    C4     O246      1.03039      .   S
    C114   O247      0.68448      .   S
    C115   O247      0.68448      .   S
    C114   O248      0.54350  1_565   S
    C42    O248      0.54350      .   S
    C125   O249      0.66866      .   S
    C177   O249      0.66866      .   S
    C115   O250      0.54161      .   S
    C43    O250      0.54161  1_655   S
    C133   O251      0.69600      .   S
    C152   O251      0.69600      .   S
    C133   O252      0.70179      .   S
    C131   O252      0.70179      .   S
    C51    O253      0.54138      .   S
    C123   O253      0.54138      .   S
    C72    O254      0.54439      .   S
    C152   O254      0.54439      .   S
    C123   O255      0.68544      .   S
    C124   O255      0.68544  1_545   S
    C130   O256      0.62466      .   S
    C196   O256      0.62466      .   S
    C130   O257      0.75264      .   S
    C131   O257      0.75264      .   S
    C89    O258      0.70166      .   S
    C88    O258      0.70166      .   S
    C89    O259      0.69560      .   S
    C107   O259      0.69560      .   S
    C88    O260      0.70057      .   S
    C87    O260      0.70057      .   S
    C152   O261      0.70043      .   S
    C151   O261      0.70043      .   S
    C177   O262      0.69593      .   S
    C124   O262      0.69593      .   S
    C177   O263      1.01739      .   S
    C4     O263      1.01739      .   S
    C131   O264      0.70050      .   S
    C132   O264      0.70050      .   S
    C68    O265      0.54306      .   S
    C144   O265      0.54306      .   S
    C124   O266      0.54304      .   S
    C52    O266      0.54304      .   S
    C38    O267      0.54479      .   S
    C107   O267      0.54479      .   S
    C107   O268      0.70057      .   S
    C108   O268      0.70057      .   S
    C4     O269      1.01727      .   S
    C185   O269      1.01727      .   S
    C4     O270      1.03041      .   S
    C166   O270      1.03041      .   S
    C87    O271      0.54482      .   S
    C22    O271      0.54482      .   S
    C87    O272      0.69558      .   S
    C109   O272      0.69558      .   S
    C144   O273      0.69531      .   S
    C185   O273      0.69531      .   S
    C144   O274      0.68515  1_655   S
    C143   O274      0.68515      .   S
    C151   O275      0.75240      .   S
    C150   O275      0.75240      .   S
    C151   O276      0.70179      .   S
    C153   O276      0.70179      .   S
    C200   O277      0.62456      .   S
    C150   O277      0.62456      .   S
    C185   O278      0.66968      .   S
    C145   O278      0.66968      .   S
    C132   O279      0.54437      .   S
    C56    O279      0.54437      .   S
    C132   O280      0.69592      .   S
    C153   O280      0.69592      .   S
    C59    O281      0.54130  1_545   S
    C135   O281      0.54130      .   S
    C58    O282      0.54362      .   S
    C134   O282      0.54362  1_455   S
    C108   O283      0.70161      .   S
    C109   O283      0.70161      .   S
    C108   O284      0.75309      .   S
    C106   O284      0.75309      .   S
    C109   O285      0.54478      .   S
    C39    O285      0.54478      .   S
    C150   O286      0.65181      .   S
    C201   O286      0.65181      .   S
    C143   O287      0.54122      .   S
    C67    O287      0.54122      .   S
    C143   O288      0.69716      .   S
    C184   O288      0.69716  1_655   S
    C153   O289      0.54422      .   S
    C73    O289      0.54422      .   S
    C135   O290      0.68453      .   S
    C134   O290      0.68453      .   S
    C135   O291      0.69326      .   S
    C178   O291      0.69326  1_545   S
    C145   O292      0.67959      .   S
    C184   O292      0.67959      .   S
    C145   O293      0.54049      .   S
    C69    O293      0.54049      .   S
    C134   O294      0.69871      .   S
    C179   O294      0.69871      .   S
    C166   O295      0.66897      .   S
    C100   O295      0.66897      .   S
    C166   O296      0.69589      .   S
    C101   O296      0.69589      .   S
    C32    O297      0.54139      .   S
    C100   O297      0.54139      .   S
    C184   O298      0.78354  1_655   S
    C9     O298      0.78354      .   S
    C190   O299      0.62449      .   S
    C106   O299      0.62449      .   S
    C106   O300      0.65069      .   S
    C191   O300      0.65069      .   S
    C33    O301      0.54300      .   S
    C101   O301      0.54300      .   S
    C201   O302      0.98105      .   S
    C3     O302      0.98105      .   S
    C100   O303      0.68158      .   S
    C167   O303      0.68158      .   S
    C101   O304      0.68506      .   S
    C102   O304      0.68506      .   S
    C178   O305      1.00030      .   S
    C3     O305      1.00030      .   S
    C178   O306      0.66687  1_545   S
    C136   O306      0.66687      .   S
    C179   O307      0.76938      .   S
    C9     O307      0.76938      .   S
    C179   O308      0.68220      .   S
    C136   O308      0.68220      .   S
    C29    O309      0.54198      .   S
    C97    O309      0.54198      .   S
    C191   O310      0.97531      .   S
    C1     O310      0.97531      .   S
    C9     O311      0.77456  1_455   S
    C181   O311      0.77456      .   S
    C9     O312      0.78415      .   S
    C183   O312      0.78415      .   S
    C66    O313      0.54180      .   S
    C142   O313      0.54180      .   S
    C3     O314      1.03744      .   S
    C164   O314      1.03744      .   S
    C3     O315      0.97526      .   S
    C199   O315      0.97526      .   S
    C97    O316      0.68529      .   S
    C98    O316      0.68529      .   S
    C97    O317      0.69203      .   S
    C164   O317      0.69203      .   S
    C63    O318      0.54217      .   S
    C139   O318      0.54217      .   S
    C136   O319      0.54416      .   S
    C60    O319      0.54416      .   S
    C30    O320      0.54156      .   S
    C98    O320      0.54156      .   S
    C98    O321      0.69766      .   S
    C165   O321      0.69766      .   S
    C28    O322      0.54414      .   S
    C96    O322      0.54414      .   S
    C167   O323      0.69584      .   S
    C102   O323      0.69584      .   S
    C167   O324      0.78409      .   S
    C7     O324      0.78409      .   S
    C164   O325      0.66696      .   S
    C99    O325      0.66696      .   S
    C139   O326      0.68166      .   S
    C181   O326      0.68166      .   S
    C139   O327      0.66656      .   S
    C180   O327      0.66656      .   S
    C181   O328      0.69758      .   S
    C138   O328      0.69758      .   S
    C102   O329      0.54115      .   S
    C34    O329      0.54115      .   S
    C142   O330      0.69586      .   S
    C183   O330      0.69586      .   S
    C142   O331      0.68506      .   S
    C141   O331      0.68506      .   S
    C165   O332      0.68167      .   S
    C99    O332      0.68167      .   S
    C165   O333      0.77471      .   S
    C7     O333      0.77471  1_655   S
    C99    O334      0.54175      .   S
    C31    O334      0.54175      .   S
    C180   O335      0.69231      .   S
    C137   O335      0.69231      .   S
    C180   O336      1.03758      .   S
    C1     O336      1.03758      .   S
    C183   O337      0.68158      .   S
    C140   O337      0.68158      .   S
    C138   O338      0.54166      .   S
    C62    O338      0.54166      .   S
    C138   O339      0.68544      .   S
    C137   O339      0.68544      .   S
    C96    O340      0.68222      .   S
    C163   O340      0.68222      .   S
    C96    O341      0.66692      .   S
    C162   O341      0.66692  1_565   S
    C137   O342      0.54197      .   S
    C61    O342      0.54197      .   S
    C1     O343      1.00031      .   S
    C162   O343      1.00031      .   S
    C1     O344      0.98104      .   S
    C193   O344      0.98104      .   S
    C7     O345      0.76942      .   S
    C163   O345      0.76942      .   S
    C7     O346      0.78354      .   S
    C168   O346      0.78354  1_455   S
    C199   O347      0.65069      .   S
    C146   O347      0.65069      .   S
    C163   O348      0.69868      .   S
    C94    O348      0.69868      .   S
    C162   O349      0.69324  1_565   S
    C95    O349      0.69324      .   S
    C141   O350      0.54301      .   S
    C65    O350      0.54301      .   S
    C141   O351      0.69588      .   S
    C182   O351      0.69588      .   S
    C140   O352      0.54134      .   S
    C64    O352      0.54134      .   S
    C140   O353      0.66894      .   S
    C182   O353      0.66894      .   S
    C193   O354      0.65123      .   S
    C110   O354      0.65123      .   S
    C41    O355      0.54422      .   S
    C113   O355      0.54422      .   S
    C146   O356      0.62450      .   S
    C198   O356      0.62450      .   S
    C146   O357      0.75309      .   S
    C148   O357      0.75309      .   S
    C37    O358      0.54044      .   S
    C105   O358      0.54044      .   S
    C71    O359      0.54469      .   S
    C149   O359      0.54469      .   S
    C168   O360      0.67959      .   S
    C105   O360      0.67959      .   S
    C168   O361      0.69724  1_455   S
    C103   O361      0.69724      .   S
    C182   O362      1.03049      .   S
    C5     O362      1.03049      .   S
    C94    O363      0.68453      .   S
    C95    O363      0.68453      .   S
    C94    O364      0.54342  1_655   S
    C26    O364      0.54342      .   S
    C105   O365      0.66913      .   S
    C169   O365      0.66913      .   S
    C95    O366      0.54129      .   S
    C27    O366      0.54129  1_565   S
    C113   O367      0.69593      .   S
    C92    O367      0.69593      .   S
    C113   O368      0.70179      .   S
    C111   O368      0.70179      .   S
    C35    O369      0.54120      .   S
    C103   O369      0.54120      .   S
    C24    O370      0.54439      .   S
    C92    O370      0.54439      .   S
    C103   O371      0.68510      .   S
    C104   O371      0.68510  1_455   S
    C110   O372      0.62471      .   S
    C192   O372      0.62471      .   S
    C110   O373      0.75284      .   S
    C111   O373      0.75284      .   S
    C149   O374      0.70160      .   S
    C148   O374      0.70160      .   S
    C149   O375      0.69557      .   S
    C127   O375      0.69557      .   S
    C148   O376      0.70022      .   S
    C147   O376      0.70022      .   S
    C92    O377      0.70042      .   S
    C91    O377      0.70042      .   S
    C169   O378      0.69564      .   S
    C104   O378      0.69564      .   S
    C169   O379      1.01732      .   S
    C5     O379      1.01732      .   S
    C111   O380      0.70043      .   S
    C112   O380      0.70043      .   S
    C20    O381      0.54292      .   S
    C84    O381      0.54292      .   S
    C104   O382      0.54304      .   S
    C36    O382      0.54304      .   S
    C54    O383      0.54478      .   S
    C127   O383      0.54478      .   S
    C127   O384      0.70057      .   S
    C128   O384      0.70057      .   S
    C5     O385      1.01734      .   S
    C161   O385      1.01734      .   S
    C5     O386      1.03031      .   S
    C174   O386      1.03031      .   S
    C147   O387      0.54491      .   S
    C70    O387      0.54491      .   S
    C147   O388      0.69577      .   S
    C129   O388      0.69577      .   S
    C84    O389      0.69567      .   S
    C161   O389      0.69567      .   S
    C84    O390      0.68510  1_565   S
    C83    O390      0.68510      .   S
    C91    O391      0.75239      .   S
    C90    O391      0.75239      .   S
    C91    O392      0.70176      .   S
    C93    O392      0.70176      .   S
    C188   O393      0.62475      .   S
    C90    O393      0.62475      .   S
    C161   O394      0.66912      .   S
    C85    O394      0.66912      .   S
    C112   O395      0.54439      .   S
    C40    O395      0.54439      .   S
    C112   O396      0.69589      .   S
    C93    O396      0.69589      .   S
    C11    O397      0.54140  1_455   S
    C75    O397      0.54140      .   S
    C10    O398      0.54350      .   S
    C74    O398      0.54350  1_545   S
    C128   O399      0.70163      .   S
    C129   O399      0.70163      .   S
    C128   O400      0.75316      .   S
    C126   O400      0.75316      .   S
    C129   O401      0.54469      .   S
    C55    O401      0.54469      .   S
    C90    O402      0.65185      .   S
    C189   O402      0.65185      .   S
    C83    O403      0.54123      .   S
    C19    O403      0.54123      .   S
    C83    O404      0.69697      .   S
    C160   O404      0.69697  1_565   S
    C93    O405      0.54439      .   S
    C25    O405      0.54439      .   S
    C75    O406      0.68455      .   S
    C74    O406      0.68455      .   S
    C75    O407      0.69336      .   S
    C154   O407      0.69336  1_455   S
    C85    O408      0.67959      .   S
    C160   O408      0.67959      .   S
    C85    O409      0.54052      .   S
    C21    O409      0.54052      .   S
    C74    O410      0.69873      .   S
    C155   O410      0.69873      .   S
    C174   O411      0.66898      .   S
    C120   O411      0.66898      .   S
    C174   O412      0.69592      .   S
    C121   O412      0.69592      .   S
    C48    O413      0.54132      .   S
    C120   O413      0.54132      .   S
    C160   O414      0.78356  1_565   S
    C6     O414      0.78356      .   S
    C194   O415      0.62448      .   S
    C126   O415      0.62448      .   S
    C126   O416      0.65071      .   S
    C195   O416      0.65071      .   S
    C49    O417      0.54304      .   S
    C121   O417      0.54304      .   S
    C189   O418      0.98114      .   S
    C0     O418      0.98114      .   S
    C120   O419      0.68158      .   S
    C175   O419      0.68158      .   S
    C121   O420      0.68508      .   S
    C122   O420      0.68508      .   S
    C154   O421      1.00038      .   S
    C0     O421      1.00038      .   S
    C154   O422      0.66714  1_455   S
    C76    O422      0.66714      .   S
    C155   O423      0.76936      .   S
    C6     O423      0.76936      .   S
    C155   O424      0.68219      .   S
    C76    O424      0.68219      .   S
    C45    O425      0.54209      .   S
    C117   O425      0.54209      .   S
    C6     O426      0.77460  1_545   S
    C157   O426      0.77460      .   S
    C0     O427      1.03727      .   S
    C172   O427      1.03727      .   S
    C117   O428      0.68531      .   S
    C118   O428      0.68531      .   S
    C117   O429      0.69211      .   S
    C172   O429      0.69211      .   S
    C15    O430      0.54176      .   S
    C79    O430      0.54176      .   S
    C46    O431      0.54166      .   S
    C118   O431      0.54166      .   S
    C175   O432      0.69588      .   S
    C122   O432      0.69588      .   S
    C79    O433      0.68168      .   S
    C157   O433      0.68168      .   S
