# CIF file generated by openbabel 2.4.90, see http://openbabel.sf.net
data_I
_chemical_name_common ''
_cell_length_a 6.315
_cell_length_b 8.7495
_cell_length_c 9.775
_cell_angle_alpha 64.711
_cell_angle_beta 84.48
_cell_angle_gamma 83.627
_space_group_name_H-M_alt 'P 1'
_space_group_name_Hall 'P 1'
loop_
    _symmetry_equiv_pos_as_xyz
    x,y,z
loop_
    _atom_site_label
    _atom_site_type_symbol
    _atom_site_fract_x
    _atom_site_fract_y
    _atom_site_fract_z
    _atom_site_occupancy
    C0      C    0.18265   0.08922   0.32728   1.000
    C1      C    0.32534   0.18162   0.38329   1.000
    C2      C    0.14118   0.71988   0.18596   1.000
    C3      C    0.38885   0.71445   0.18852   1.000
    C4      C    0.81731   0.91058   0.67286   1.000
    C5      C    0.67457   0.81819   0.61688   1.000
    C6      C    0.85886   0.28010   0.81411   1.000
    C7      C    0.61117   0.28552   0.81165   1.000
loop_
    _geom_bond_atom_site_label_1
    _geom_bond_atom_site_label_2
    _geom_bond_distance
    _geom_bond_site_symmetry_2
    _ccdc_geom_bond_type
    C2     C3        1.56179      .   S
    C0     C1        1.54926      .   S
    C5     C4        1.54916      .   S
    C7     C6        1.56180      .   S
