# CIF file generated by openbabel 2.4.90, see http://openbabel.sf.net
data_I
_chemical_name_common ''
_cell_length_a 6.315
_cell_length_b 8.7495
_cell_length_c 9.775
_cell_angle_alpha 64.711
_cell_angle_beta 84.48
_cell_angle_gamma 83.627
_space_group_name_H-M_alt 'P 1'
_space_group_name_Hall 'P 1'
loop_
    _symmetry_equiv_pos_as_xyz
    x,y,z
loop_
    _atom_site_label
    _atom_site_type_symbol
    _atom_site_fract_x
    _atom_site_fract_y
    _atom_site_fract_z
    _atom_site_occupancy
    Zr0     Zr   0.71954   0.97501   0.19902   1.000
    Zr1     Zr   0.78633   0.36134   0.43386   1.000
    Zr2     Zr   0.28054   0.02508   0.80109   1.000
    Zr3     Zr   0.21363   0.63859   0.56625   1.000
    Zr4     Zr   0.18265   0.08922   0.32728   1.000
    Zr5     Zr   0.32534   0.18162   0.38329   1.000
    Zr6     Zr   0.14118   0.71988   0.18596   1.000
    Zr7     Zr   0.38885   0.71445   0.18852   1.000
    Zr8     Zr   0.81731   0.91058   0.67286   1.000
    Zr9     Zr   0.67457   0.81819   0.61688   1.000
    Zr10    Zr   0.85886   0.28010   0.81411   1.000
    Zr11    Zr   0.61117   0.28552   0.81165   1.000
    Zr12    Zr   0.98907   0.14553   0.30580   1.000
    Zr13    Zr   0.26910   0.95835   0.31200   1.000
    Zr14    Zr   0.23894   0.23507   0.47929   1.000
    Zr15    Zr   0.51881   0.19331   0.33301   1.000
    Zr16    Zr   0.03710   0.64012   0.31143   1.000
    Zr17    Zr   0.05641   0.81228   0.06270   1.000
    Zr18    Zr   0.47335   0.62989   0.31583   1.000
    Zr19    Zr   0.48839   0.80424   0.06693   1.000
    Zr20    Zr   0.01094   0.85466   0.69414   1.000
    Zr21    Zr   0.73094   0.04143   0.68818   1.000
    Zr22    Zr   0.76091   0.76476   0.52085   1.000
    Zr23    Zr   0.48112   0.80651   0.66721   1.000
    Zr24    Zr   0.96288   0.35984   0.68860   1.000
    Zr25    Zr   0.94367   0.18770   0.93735   1.000
    Zr26    Zr   0.52659   0.36976   0.68432   1.000
    Zr27    Zr   0.51165   0.19602   0.93337   1.000
    O28     O    0.09879   0.76608   0.12433   1.000
    O29     O    0.16847   0.91868   0.93189   1.000
    O30     O    0.43862   0.75935   0.12772   1.000
    O31     O    0.38446   0.91466   0.93401   1.000
    O32     O    0.26501   0.71717   0.18724   1.000
    O33     O    0.08914   0.68000   0.24870   1.000
    O34     O    0.43110   0.67217   0.25218   1.000
    O35     O    0.61560   0.08552   0.06620   1.000
    O36     O    0.83161   0.08136   0.06818   1.000
    O37     O    0.08586   0.11737   0.31654   1.000
    O38     O    0.91171   0.50073   0.37264   1.000
    O39     O    0.22587   0.02378   0.31964   1.000
    O40     O    0.62984   0.49562   0.37484   1.000
    O41     O    0.25399   0.13542   0.35528   1.000
    O42     O    0.42207   0.18747   0.35815   1.000
    O43     O    0.28214   0.20835   0.43129   1.000
    O44     O    0.71774   0.79148   0.56887   1.000
    O45     O    0.37011   0.50418   0.62528   1.000
    O46     O    0.08826   0.49922   0.62743   1.000
    O47     O    0.57784   0.81235   0.64205   1.000
    O48     O    0.74594   0.86438   0.64487   1.000
    O49     O    0.77412   0.97600   0.68052   1.000
    O50     O    0.91412   0.88262   0.68350   1.000
    O51     O    0.56888   0.32764   0.74798   1.000
    O52     O    0.91087   0.31997   0.75135   1.000
    O53     O    0.73501   0.28281   0.81288   1.000
    O54     O    0.56141   0.24077   0.87251   1.000
    O55     O    0.90126   0.23390   0.87573   1.000
    O56     O    0.85431   0.06027   0.25241   1.000
    O57     O    0.88770   0.25343   0.36983   1.000
    O58     O    0.49432   0.96668   0.25551   1.000
    O59     O    0.24136   0.79847   0.43912   1.000
    O60     O    0.01263   0.29820   0.45657   1.000
    O61     O    0.25974   0.13007   0.64019   1.000
    O62     O    0.61918   0.08416   0.26601   1.000
    O63     O    0.65257   0.27733   0.38343   1.000
    O64     O    0.87832   0.80756   0.25523   1.000
    O65     O    0.12537   0.63935   0.43884   1.000
    O66     O    0.88798   0.89365   0.13086   1.000
    O67     O    0.59645   0.80245   0.25743   1.000
    O68     O    0.34349   0.63424   0.44104   1.000
    O69     O    0.60397   0.88963   0.13297   1.000
    O70     O    0.14574   0.93987   0.74762   1.000
    O71     O    0.11228   0.74663   0.63020   1.000
    O72     O    0.75864   0.20138   0.56102   1.000
    O73     O    0.50574   0.03325   0.74464   1.000
    O74     O    0.74023   0.86989   0.35994   1.000
    O75     O    0.98727   0.70168   0.54355   1.000
    O76     O    0.38083   0.91579   0.73415   1.000
    O77     O    0.34738   0.72255   0.61673   1.000
    O78     O    0.87461   0.36059   0.56123   1.000
    O79     O    0.12171   0.19246   0.74485   1.000
    O80     O    0.11210   0.10639   0.86922   1.000
    O81     O    0.65646   0.36555   0.55909   1.000
    O82     O    0.40356   0.19742   0.74270   1.000
    O83     O    0.39609   0.11055   0.86723   1.000
loop_
    _geom_bond_atom_site_label_1
    _geom_bond_atom_site_label_2
    _geom_bond_distance
    _geom_bond_site_symmetry_2
    _ccdc_geom_bond_type
    Zr17   O28       0.63001      .   S
    Zr6    O28       0.63001      .   S
    Zr17   O29       1.39912  1_554   S
    Zr2    O29       1.39912  1_545   S
    Zr19   O30       0.63112      .   S
    Zr7    O30       0.63112      .   S
    Zr19   O31       1.41530  1_554   S
    Zr2    O31       1.41530  1_545   S
    Zr6    O32       0.78090      .   S
    Zr7    O32       0.78090      .   S
    Zr6    O33       0.64007      .   S
    Zr16   O33       0.64007      .   S
    Zr7    O34       0.63918      .   S
    Zr18   O34       0.63918      .   S
    Zr0    O35       1.41494  1_565   S
    Zr27   O35       1.41494  1_556   S
    Zr0    O36       1.39915  1_565   S
    Zr25   O36       1.39915  1_556   S
    Zr12   O37       0.63412  1_655   S
    Zr4    O37       0.63412      .   S
    Zr16   O38       1.40432  1_455   S
    Zr1    O38       1.40432      .   S
    Zr13   O39       0.63699  1_565   S
    Zr4    O39       0.63699      .   S
    Zr18   O40       1.40092      .   S
    Zr1    O40       1.40092      .   S
    Zr4    O41       0.77463      .   S
    Zr5    O41       0.77463      .   S
    Zr15   O42       0.63522      .   S
    Zr5    O42       0.63522      .   S
    Zr5    O43       0.63575      .   S
    Zr14   O43       0.63575      .   S
    Zr22   O44       0.63577      .   S
    Zr9    O44       0.63577      .   S
    Zr3    O45       1.40158      .   S
    Zr26   O45       1.40158      .   S
    Zr3    O46       1.40418      .   S
    Zr24   O46       1.40418  1_655   S
    Zr9    O47       0.63520      .   S
    Zr23   O47       0.63520      .   S
    Zr9    O48       0.77458      .   S
    Zr8    O48       0.77458      .   S
    Zr8    O49       0.63695      .   S
    Zr21   O49       0.63695  1_545   S
    Zr8    O50       0.63383      .   S
    Zr20   O50       0.63383  1_455   S
    Zr26   O51       0.63921      .   S
    Zr11   O51       0.63921      .   S
    Zr24   O52       0.64007      .   S
    Zr10   O52       0.64007      .   S
    Zr11   O53       0.78090      .   S
    Zr10   O53       0.78090      .   S
    Zr11   O54       0.63110      .   S
    Zr27   O54       0.63110      .   S
    Zr10   O55       0.63001      .   S
    Zr25   O55       0.63001      .   S
    Zr12   O56       1.45331      .   S
    Zr0    O56       1.45331  1_565   S
    Zr12   O57       1.40941      .   S
    Zr1    O57       1.40941      .   S
    Zr13   O58       1.47331      .   S
    Zr0    O58       1.47331      .   S
    Zr13   O59       1.43495      .   S
    Zr3    O59       1.43495      .   S
    Zr14   O60       1.47574      .   S
    Zr1    O60       1.47574  1_655   S
    Zr14   O61       1.45376      .   S
    Zr2    O61       1.45376      .   S
    Zr15   O62       1.43622      .   S
    Zr0    O62       1.43622  1_565   S
    Zr15   O63       1.42277      .   S
    Zr1    O63       1.42277      .   S
    Zr16   O64       1.59555  1_455   S
    Zr0    O64       1.59555      .   S
    Zr16   O65       1.40976      .   S
    Zr3    O65       1.40976      .   S
    Zr17   O66       1.47745  1_455   S
    Zr0    O66       1.47745      .   S
    Zr18   O67       1.62740      .   S
    Zr0    O67       1.62740      .   S
    Zr18   O68       1.41833      .   S
    Zr3    O68       1.41833      .   S
    Zr19   O69       1.45992      .   S
    Zr0    O69       1.45992      .   S
    Zr20   O70       1.45364      .   S
    Zr2    O70       1.45364  1_545   S
    Zr20   O71       1.40978      .   S
    Zr3    O71       1.40978      .   S
    Zr21   O72       1.43547      .   S
    Zr1    O72       1.43547      .   S
    Zr21   O73       1.47311      .   S
    Zr2    O73       1.47311      .   S
    Zr22   O74       1.45396      .   S
    Zr0    O74       1.45396      .   S
    Zr22   O75       1.47598      .   S
    Zr3    O75       1.47598  1_455   S
    Zr23   O76       1.43665      .   S
    Zr2    O76       1.43665  1_545   S
    Zr23   O77       1.42270      .   S
    Zr3    O77       1.42270      .   S
    Zr24   O78       1.40955      .   S
    Zr1    O78       1.40955      .   S
    Zr24   O79       1.59535  1_655   S
    Zr2    O79       1.59535      .   S
    Zr25   O80       1.47702  1_655   S
    Zr2    O80       1.47702      .   S
    Zr26   O81       1.41816      .   S
    Zr1    O81       1.41816      .   S
    Zr26   O82       1.62562      .   S
    Zr2    O82       1.62562      .   S
    Zr27   O83       1.46109      .   S
    Zr2    O83       1.46109      .   S
