# CIF file generated by openbabel 2.4.90, see http://openbabel.sf.net
data_I
_chemical_name_common ''
_cell_length_a 9.387
_cell_length_b 10.539
_cell_length_c 10.5695
_cell_angle_alpha 91.038
_cell_angle_beta 99.331
_cell_angle_gamma 99.599
_space_group_name_H-M_alt 'P 1'
_space_group_name_Hall 'P 1'
loop_
    _symmetry_equiv_pos_as_xyz
    x,y,z
loop_
    _atom_site_label
    _atom_site_type_symbol
    _atom_site_fract_x
    _atom_site_fract_y
    _atom_site_fract_z
    _atom_site_occupancy
    C0      C    0.75012   0.97966   0.02103   1.000
    C1      C    0.24986   0.02034   0.97898   1.000
    C2      C    0.98927   0.79860   0.04227   1.000
    C3      C    0.50860   0.95942   0.20165   1.000
    C4      C    0.01073   0.20140   0.95775   1.000
    C5      C    0.49138   0.04058   0.79837   1.000
    C6      C    0.00192   0.80454   0.25125   1.000
    C7      C    0.73265   0.66392   0.95786   1.000
    C8      C    0.22405   0.65843   0.08193   1.000
    C9      C    0.50021   0.75013   0.19415   1.000
    C10     C    0.76632   0.04401   0.33439   1.000
    C11     C    0.27483   0.92030   0.34305   1.000
    C12     C    0.99808   0.19546   0.74876   1.000
    C13     C    0.26735   0.33608   0.04216   1.000
    C14     C    0.77595   0.34157   0.91808   1.000
    C15     C    0.49978   0.24987   0.80587   1.000
    C16     C    0.23367   0.95600   0.66563   1.000
    C17     C    0.72516   0.07971   0.65696   1.000
    C18     C    0.86133   0.54002   0.97035   1.000
    C19     C    0.98965   0.63023   0.01774   1.000
    C20     C    0.12535   0.58903   0.04624   1.000
    C21     C    0.63851   0.02965   0.45912   1.000
    C22     C    0.50949   0.98334   0.36979   1.000
    C23     C    0.37400   0.95496   0.41185   1.000
    C24     C    0.13867   0.45998   0.02967   1.000
    C25     C    0.01035   0.36977   0.98227   1.000
    C26     C    0.87465   0.41097   0.95378   1.000
    C27     C    0.36148   0.97035   0.54090   1.000
    C28     C    0.49050   0.01666   0.63022   1.000
    C29     C    0.62599   0.04504   0.58817   1.000
    C30     C    0.06313   0.83977   0.18949   1.000
    C31     C    0.82767   0.81533   0.02114   1.000
    C32     C    0.08776   0.87705   0.96181   1.000
    C33     C    0.72497   0.57035   0.93910   1.000
    C34     C    0.43721   0.81096   0.16055   1.000
    C35     C    0.66983   0.98388   0.18336   1.000
    C36     C    0.40724   0.03812   0.12503   1.000
    C37     C    0.77480   0.06092   0.42806   1.000
    C38     C    0.93687   0.16023   0.81053   1.000
    C39     C    0.17232   0.18467   0.97887   1.000
    C40     C    0.91222   0.12295   0.03820   1.000
    C41     C    0.27503   0.42964   0.06092   1.000
    C42     C    0.56278   0.18904   0.83947   1.000
    C43     C    0.33016   0.01612   0.81665   1.000
    C44     C    0.59275   0.96188   0.87498   1.000
    C45     C    0.22519   0.93909   0.57196   1.000
    O46     O    0.98946   0.71441   0.03000   1.000
    O47     O    0.05750   0.60963   0.03199   1.000
    O48     O    0.92549   0.58513   0.99405   1.000
    O49     O    0.78890   0.89749   0.02109   1.000
    O50     O    0.83117   0.05130   0.02962   1.000
    O51     O    0.70998   0.98177   0.10220   1.000
    O52     O    0.67144   0.97077   0.94801   1.000
    O53     O    0.90847   0.80696   0.03171   1.000
    O54     O    0.13201   0.52450   0.03795   1.000
    O55     O    0.20685   0.44481   0.04530   1.000
    O56     O    0.07451   0.41488   0.00597   1.000
    O57     O    0.96148   0.16217   0.99798   1.000
    O58     O    0.27119   0.38286   0.05154   1.000
    O59     O    0.02620   0.81919   0.11588   1.000
    O60     O    0.03851   0.83783   0.00204   1.000
    O61     O    0.17470   0.62373   0.06409   1.000
    O62     O    0.45792   0.99877   0.16334   1.000
    O63     O    0.32855   0.02923   0.05200   1.000
    O64     O    0.46871   0.78054   0.17735   1.000
    O65     O    0.47291   0.88519   0.18110   1.000
    O66     O    0.58922   0.97165   0.19250   1.000
    O67     O    0.03252   0.82216   0.22037   1.000
    O68     O    0.50905   0.97138   0.28572   1.000
    O69     O    0.77056   0.05246   0.38122   1.000
    O70     O    0.32441   0.93763   0.37745   1.000
    O71     O    0.44174   0.96915   0.39082   1.000
    O72     O    0.57400   0.00649   0.41445   1.000
    O73     O    0.36774   0.96266   0.47637   1.000
    O74     O    0.70665   0.04528   0.44359   1.000
    O75     O    0.63225   0.03734   0.52364   1.000
    O76     O    0.29334   0.95472   0.55643   1.000
    O77     O    0.42599   0.99351   0.58556   1.000
    O78     O    0.22943   0.94754   0.61879   1.000
    O79     O    0.55824   0.03085   0.60919   1.000
    O80     O    0.67557   0.06237   0.62256   1.000
    O81     O    0.49094   0.02862   0.71430   1.000
    O82     O    0.96747   0.17785   0.77964   1.000
    O83     O    0.41077   0.02835   0.80751   1.000
    O84     O    0.52708   0.11481   0.81892   1.000
    O85     O    0.54207   0.00123   0.83667   1.000
    O86     O    0.53128   0.21946   0.82267   1.000
    O87     O    0.97380   0.18082   0.88414   1.000
    O88     O    0.29001   0.01823   0.89782   1.000
    O89     O    0.82530   0.37627   0.93593   1.000
    O90     O    0.72881   0.61714   0.94848   1.000
    O91     O    0.79315   0.55519   0.95472   1.000
    O92     O    0.86799   0.47550   0.96206   1.000
    O93     O    0.94250   0.39037   0.96802   1.000
    O94     O    0.09152   0.19304   0.96831   1.000
    O95     O    0.01054   0.28559   0.97001   1.000
    O96     O    0.16881   0.94870   0.97039   1.000
    O97     O    0.21109   0.10251   0.97893   1.000
loop_
    _geom_bond_atom_site_label_1
    _geom_bond_atom_site_label_2
    _geom_bond_distance
    _geom_bond_site_symmetry_2
    _ccdc_geom_bond_type
    C19    O46       0.89465      .   S
    C2     O46       0.89465      .   S
    C19    O47       0.70121  1_655   S
    C20    O47       0.70121      .   S
    C19    O48       0.70903  1_554   S
    C18    O48       0.70903      .   S
    C0     O49       0.99367      .   S
    C31    O49       0.99367      .   S
    C0     O50       0.96994  1_565   S
    C40    O50       0.96994      .   S
    C0     O51       0.99265      .   S
    C35    O51       0.99265      .   S
    C0     O52       0.96928  1_554   S
    C44    O52       0.96928      .   S
    C31    O53       0.76854      .   S
    C2     O53       0.76854      .   S
    C24    O54       0.69843      .   S
    C20    O54       0.69843      .   S
    C24    O55       0.68059      .   S
    C41    O55       0.68059      .   S
    C24    O56       0.70902      .   S
    C25    O56       0.70902  1_556   S
    C40    O57       0.75615  1_554   S
    C4     O57       0.75615  1_455   S
    C13    O58       0.49536      .   S
    C41    O58       0.49536      .   S
    C2     O59       0.80866  1_655   S
    C30    O59       0.80866      .   S
    C2     O60       0.75616  1_655   S
    C32    O60       0.75616  1_556   S
    C20    O61       0.54460      .   S
    C8     O61       0.54460      .   S
    C36    O62       0.75609  1_545   S
    C3     O62       0.75609      .   S
    C36    O63       0.96929      .   S
    C1     O63       0.96929  1_556   S
    C34    O64       0.48823      .   S
    C9     O64       0.48823      .   S
    C34    O65       0.80889      .   S
    C3     O65       0.80889      .   S
    C35    O66       0.76825      .   S
    C3     O66       0.76825      .   S
    C30    O67       0.48822      .   S
    C6     O67       0.48822      .   S
    C3     O68       0.89446      .   S
    C22    O68       0.89446      .   S
    C10    O69       0.49539      .   S
    C37    O69       0.49539      .   S
    C11    O70       0.54458      .   S
    C23    O70       0.54458      .   S
    C22    O71       0.70105      .   S
    C23    O71       0.70105      .   S
    C22    O72       0.70917  1_565   S
    C21    O72       0.70917      .   S
    C23    O73       0.69837      .   S
    C27    O73       0.69837      .   S
    C37    O74       0.68058      .   S
    C21    O74       0.68058      .   S
    C21    O75       0.69837      .   S
    C29    O75       0.69837      .   S
    C27    O76       0.68057      .   S
    C45    O76       0.68057      .   S
    C27    O77       0.70918      .   S
    C28    O77       0.70918  1_545   S
    C45    O78       0.49539      .   S
    C16    O78       0.49539      .   S
    C29    O79       0.70105      .   S
    C28    O79       0.70105      .   S
    C29    O80       0.54458      .   S
    C17    O80       0.54458      .   S
    C28    O81       0.89446      .   S
    C5     O81       0.89446      .   S
    C12    O82       0.48822      .   S
    C38    O82       0.48822      .   S
    C5     O83       0.76823      .   S
    C43    O83       0.76823      .   S
    C5     O84       0.80888      .   S
    C42    O84       0.80888      .   S
    C5     O85       0.75612      .   S
    C44    O85       0.75612  1_565   S
    C15    O86       0.48823      .   S
    C42    O86       0.48823      .   S
    C38    O87       0.80865      .   S
    C4     O87       0.80865  1_455   S
    C43    O88       0.99266      .   S
    C1     O88       0.99266      .   S
    C14    O89       0.54460      .   S
    C26    O89       0.54460      .   S
    C33    O90       0.49536      .   S
    C7     O90       0.49536      .   S
    C33    O91       0.68060      .   S
    C18    O91       0.68060      .   S
    C26    O92       0.69842      .   S
    C18    O92       0.69842      .   S
    C26    O93       0.70120      .   S
    C25    O93       0.70120  1_455   S
    C4     O94       0.76855      .   S
    C39    O94       0.76855      .   S
    C4     O95       0.89465      .   S
    C25    O95       0.89465      .   S
    C32    O96       0.96995      .   S
    C1     O96       0.96995  1_545   S
    C39    O97       0.99365      .   S
    C1     O97       0.99365      .   S
