# CIF file generated by openbabel 2.4.90, see http://openbabel.sf.net
data_I
_chemical_name_common ''
_cell_length_a 22.218
_cell_length_b 14.321
_cell_length_c 18.373
_cell_angle_alpha 74.409
_cell_angle_beta 72.493
_cell_angle_gamma 67.103
_space_group_name_H-M_alt 'P 1'
_space_group_name_Hall 'P 1'
loop_
    _symmetry_equiv_pos_as_xyz
    x,y,z
loop_
    _atom_site_label
    _atom_site_type_symbol
    _atom_site_fract_x
    _atom_site_fract_y
    _atom_site_fract_z
    _atom_site_occupancy
    Zr0     Zr   0.19909   0.86614   0.79359   1.000
    Zr1     Zr   0.69910   0.86613   0.79360   1.000
    Zr2     Zr   0.36573   0.65009   0.83441   1.000
    Zr3     Zr   0.86575   0.65007   0.83442   1.000
    Zr4     Zr   0.26536   0.64714   0.69572   1.000
    Zr5     Zr   0.76536   0.64713   0.69573   1.000
    Zr6     Zr   0.11180   0.67858   0.85011   1.000
    Zr7     Zr   0.61180   0.67858   0.85011   1.000
    Zr8     Zr   0.02905   0.63425   0.70595   1.000
    Zr9     Zr   0.52906   0.63425   0.70595   1.000
    Zr10    Zr   0.10756   0.85051   0.66510   1.000
    Zr11    Zr   0.60757   0.85050   0.66510   1.000
    Zr12    Zr   0.43679   0.85341   0.80371   1.000
    Zr13    Zr   0.93680   0.85340   0.80371   1.000
    Zr14    Zr   0.37588   0.82181   0.64932   1.000
    Zr15    Zr   0.87588   0.82180   0.64932   1.000
    Zr16    Zr   0.30090   0.13390   0.20637   1.000
    Zr17    Zr   0.80091   0.13389   0.20637   1.000
    Zr18    Zr   0.13425   0.34997   0.16555   1.000
    Zr19    Zr   0.63427   0.34995   0.16555   1.000
    Zr20    Zr   0.23464   0.35290   0.30425   1.000
    Zr21    Zr   0.73464   0.35289   0.30425   1.000
    Zr22    Zr   0.38820   0.32145   0.14986   1.000
    Zr23    Zr   0.88820   0.32145   0.14986   1.000
    Zr24    Zr   0.47094   0.36577   0.29402   1.000
    Zr25    Zr   0.97094   0.36578   0.29402   1.000
    Zr26    Zr   0.39243   0.14952   0.33486   1.000
    Zr27    Zr   0.89244   0.14952   0.33487   1.000
    Zr28    Zr   0.06321   0.14663   0.19626   1.000
    Zr29    Zr   0.56321   0.14662   0.19626   1.000
    Zr30    Zr   0.12412   0.17824   0.35064   1.000
    Zr31    Zr   0.62413   0.17823   0.35064   1.000
    N32     N    0.58844   0.24986   0.74981   1.000
    N33     N    0.00000   0.50001   0.49976   1.000
    N34     N    0.41156   0.75017   0.25014   1.000
    N35     N    0.00000   0.99969   0.99993   1.000
    N36     N    0.50000   0.99969   0.99993   1.000
    N37     N    0.91157   0.75017   0.25016   1.000
    N38     N    0.50000   0.50001   0.49998   1.000
    N39     N    0.08843   0.24986   0.74981   1.000
    Zr40    Zr   0.64044   0.75098   0.70470   1.000
    O41     O    0.58905   0.72193   0.71845   1.000
    O42     O    0.56599   0.77671   0.74289   1.000
    O43     O    0.73018   0.75819   0.55377   1.000
    O44     O    0.61882   0.67255   0.62334   1.000
    O45     O    0.66260   0.78216   0.73909   1.000
    Zr46    Zr   0.86844   0.74954   0.79479   1.000
    O47     O    0.76694   0.82778   0.87625   1.000
    O48     O    0.88633   0.74227   0.94595   1.000
    O49     O    0.80931   0.77856   0.78104   1.000
    O50     O    0.82587   0.72381   0.75658   1.000
    O51     O    0.92334   0.71831   0.76042   1.000
    Zr52    Zr   0.36843   0.74955   0.79478   1.000
    O53     O    0.42333   0.71832   0.76040   1.000
    O54     O    0.38632   0.74228   0.94593   1.000
    O55     O    0.26693   0.82779   0.87623   1.000
    O56     O    0.32586   0.72382   0.75656   1.000
    O57     O    0.30930   0.77857   0.78103   1.000
    Zr58    Zr   0.14044   0.75099   0.70469   1.000
    O59     O    0.08905   0.72193   0.71845   1.000
    O60     O    0.06598   0.77671   0.74289   1.000
    O61     O    0.16260   0.78217   0.73908   1.000
    O62     O    0.23017   0.75820   0.55377   1.000
    O63     O    0.11882   0.67256   0.62328   1.000
    Zr64    Zr   0.13156   0.25049   0.20517   1.000
    O65     O    0.23307   0.17209   0.12369   1.000
    O66     O    0.11367   0.25776   0.05402   1.000
    O67     O    0.07666   0.28172   0.23955   1.000
    O68     O    0.17413   0.27622   0.24339   1.000
    O69     O    0.19069   0.22148   0.21892   1.000
    Zr70    Zr   0.85957   0.24904   0.29528   1.000
    O71     O    0.93402   0.22331   0.25708   1.000
    O72     O    0.91096   0.27810   0.28152   1.000
    O73     O    0.88119   0.32747   0.37657   1.000
    O74     O    0.76983   0.24183   0.44620   1.000
    O75     O    0.83741   0.21786   0.26088   1.000
    Zr76    Zr   0.35956   0.24904   0.29527   1.000
    O77     O    0.41095   0.27810   0.28152   1.000
    O78     O    0.43402   0.22331   0.25708   1.000
    O79     O    0.33740   0.21787   0.26088   1.000
    O80     O    0.38118   0.32747   0.37663   1.000
    O81     O    0.26982   0.24183   0.44620   1.000
    Zr82    Zr   0.63157   0.25048   0.20518   1.000
    O83     O    0.73307   0.17208   0.12370   1.000
    O84     O    0.61368   0.25774   0.05402   1.000
    O85     O    0.67414   0.27621   0.24340   1.000
    O86     O    0.69070   0.22146   0.21893   1.000
    O87     O    0.57667   0.28171   0.23955   1.000
    O88     O    0.10607   0.22446   0.19622   1.000
    O89     O    0.87475   0.26589   0.24612   1.000
    O90     O    0.81656   0.27506   0.30424   1.000
    O91     O    0.31656   0.27507   0.30424   1.000
    O92     O    0.89393   0.77557   0.80375   1.000
    O93     O    0.37474   0.26589   0.24611   1.000
    O94     O    0.68345   0.72496   0.69573   1.000
    O95     O    0.36590   0.22356   0.30213   1.000
    O96     O    0.86377   0.22479   0.31158   1.000
    O97     O    0.18344   0.72496   0.69573   1.000
    O98     O    0.63074   0.23368   0.25435   1.000
    O99     O    0.86357   0.72464   0.80134   1.000
    O100    O    0.86928   0.76634   0.74562   1.000
    O101    O    0.60608   0.22445   0.19622   1.000
    O102    O    0.13072   0.23370   0.25435   1.000
    O103    O    0.12525   0.73414   0.75385   1.000
    O104    O    0.62526   0.73414   0.75386   1.000
    O105    O    0.39392   0.77558   0.80373   1.000
    O106    O    0.36927   0.76635   0.74560   1.000
    O107    O    0.37144   0.72408   0.80164   1.000
    O108    O    0.12633   0.77590   0.69815   1.000
    O109    O    0.63624   0.77523   0.68839   1.000
    O110    O    0.13643   0.27539   0.19863   1.000
    O111    O    0.62856   0.27595   0.19831   1.000
loop_
    _geom_bond_atom_site_label_1
    _geom_bond_atom_site_label_2
    _geom_bond_distance
    _geom_bond_site_symmetry_2
    _ccdc_geom_bond_type
    Zr40   O41       1.29628      .   S
    Zr9    O41       2.24666      .   S
    Zr40   O42       1.52683      .   S
    Zr12   O42       2.64031      .   S
    Zr40   O43       2.89047      .   S
    N37    O43       5.81646      .   S
    Zr40   O44       2.34116      .   S
    N38    O44       5.46789      .   S
    Zr40   O45       1.16233      .   S
    Zr1    O45       2.23642      .   S
    Zr46   O47       2.34216      .   S
    N36    O47       5.47137      .   S
    Zr46   O48       2.89101      .   S
    N37    O48       5.81731  1_554   S
    Zr46   O49       1.29656      .   S
    Zr1    O49       2.24665      .   S
    Zr46   O50       1.52746      .   S
    Zr5    O50       2.64119      .   S
    Zr46   O51       1.16214      .   S
    Zr8    O51       2.23617  1_455   S
    Zr52   O53       1.16221      .   S
    Zr9    O53       2.23631      .   S
    Zr52   O54       2.89106      .   S
    N34    O54       5.81728  1_554   S
    Zr52   O55       2.34216      .   S
    N35    O55       5.47123      .   S
    Zr52   O56       1.52740      .   S
    Zr4    O56       2.64114      .   S
    Zr52   O57       1.29653      .   S
    Zr0    O57       2.24665      .   S
    Zr58   O59       1.29628      .   S
    Zr8    O59       2.24662      .   S
    Zr58   O60       1.52675      .   S
    Zr13   O60       2.64010  1_655   S
    Zr58   O61       1.16233      .   S
    Zr0    O61       2.23643      .   S
    Zr58   O62       2.89047      .   S
    N34    O62       5.81654      .   S
    Zr58   O63       2.34196      .   S
    N33    O63       5.46987      .   S
    Zr64   O65       2.34304      .   S
    N36    O65       5.47266  1_566   S
    Zr64   O66       2.89100      .   S
    N39    O66       5.81733  1_556   S
    Zr64   O67       1.16216      .   S
    Zr25   O67       2.23620  1_655   S
    Zr64   O68       1.52748      .   S
    Zr20   O68       2.64129      .   S
    Zr64   O69       1.29653      .   S
    Zr16   O69       2.24664      .   S
    Zr70   O71       1.52675      .   S
    Zr28   O71       2.64009  1_455   S
    Zr70   O72       1.29626      .   S
    Zr25   O72       2.24663      .   S
    Zr70   O73       2.34015      .   S
    N33    O73       5.46574  1_455   S
    Zr70   O74       2.89044      .   S
    N32    O74       5.81642      .   S
    Zr70   O75       1.16233      .   S
    Zr17   O75       2.23648      .   S
    Zr76   O77       1.29626      .   S
    Zr24   O77       2.24665      .   S
    Zr76   O78       1.52682      .   S
    Zr29   O78       2.64029      .   S
    Zr76   O79       1.16234      .   S
    Zr16   O79       2.23641      .   S
    Zr76   O80       2.34116      .   S
    N38    O80       5.46788      .   S
    Zr76   O81       2.89047      .   S
    N39    O81       5.81646      .   S
    Zr82   O83       2.34300      .   S
    N35    O83       5.47250  1_466   S
    Zr82   O84       2.89102      .   S
    N32    O84       5.81734  1_556   S
    Zr82   O85       1.52747      .   S
    Zr21   O85       2.64122      .   S
    Zr82   O86       1.29654      .   S
    Zr17   O86       2.24664      .   S
    Zr82   O87       1.16222      .   S
    Zr24   O87       2.23639      .   S
    Zr28   O88       1.72478      .   S
    Zr64   O88       0.86024      .   S
    Zr70   O89       0.86641      .   S
    Zr23   O89       1.72071      .   S
    Zr70   O90       0.86030      .   S
    Zr21   O90       1.72520      .   S
    Zr20   O91       1.72519      .   S
    Zr76   O91       0.86030      .   S
    Zr13   O92       1.72477      .   S
    Zr46   O92       0.86025      .   S
    Zr76   O93       0.86641      .   S
    Zr22   O93       1.72066      .   S
    Zr5    O94       1.72518      .   S
    Zr40   O94       0.86030      .   S
    Zr26   O95       1.10344      .   S
    Zr76   O95       0.33884      .   S
    Zr27   O96       1.06419      .   S
    Zr70   O96       0.39335      .   S
    Zr4    O97       1.72519      .   S
    Zr58   O97       0.86030      .   S
    Zr31   O98       1.72084      .   S
    Zr82   O98       0.86663      .   S
    Zr46   O99       0.39051      .   S
    Zr3    O99       1.06809      .   S
    Zr46   O100      0.86668      .   S
    Zr15   O100      1.72097      .   S
    Zr29   O101      1.72479      .   S
    Zr82   O101      0.86026      .   S
    Zr30   O102      1.72089      .   S
    Zr64   O102      0.86664      .   S
    Zr6    O103      1.72074      .   S
    Zr58   O103      0.86642      .   S
    Zr7    O104      1.72065      .   S
    Zr40   O104      0.86641      .   S
    Zr12   O105      1.72485      .   S
    Zr52   O105      0.86027      .   S
    Zr14   O106      1.72075      .   S
    Zr52   O106      0.86661      .   S
    Zr52   O107      0.33878      .   S
    Zr2    O107      1.10332      .   S
    Zr58   O108      0.39052      .   S
    Zr10   O108      1.06825      .   S
    Zr40   O109      0.39335      .   S
    Zr11   O109      1.06418      .   S
    Zr64   O110      0.39051      .   S
    Zr18   O110      1.06807      .   S
    Zr82   O111      0.33878      .   S
    Zr19   O111      1.10329      .   S
