# CIF file generated by openbabel 2.4.90, see http://openbabel.sf.net
data_I
_chemical_name_common ''
_cell_length_a 22.218
_cell_length_b 14.321
_cell_length_c 18.373
_cell_angle_alpha 74.409
_cell_angle_beta 72.493
_cell_angle_gamma 67.103
_space_group_name_H-M_alt 'P 1'
_space_group_name_Hall 'P 1'
loop_
    _symmetry_equiv_pos_as_xyz
    x,y,z
loop_
    _atom_site_label
    _atom_site_type_symbol
    _atom_site_fract_x
    _atom_site_fract_y
    _atom_site_fract_z
    _atom_site_occupancy
    Zr0     Zr   0.20463   0.74093   0.60225   1.000
    Zr1     Zr   0.70464   0.74092   0.60225   1.000
    Zr2     Zr   0.30123   0.74904   0.74098   1.000
    Zr3     Zr   0.80124   0.74903   0.74099   1.000
    Zr4     Zr   0.37664   0.75968   0.89725   1.000
    Zr5     Zr   0.87665   0.75966   0.89726   1.000
    Zr6     Zr   0.04626   0.75148   0.75846   1.000
    Zr7     Zr   0.54626   0.75148   0.75847   1.000
    Zr8     Zr   0.29536   0.25910   0.39772   1.000
    Zr9     Zr   0.79537   0.25909   0.39772   1.000
    Zr10    Zr   0.19875   0.25101   0.25897   1.000
    Zr11    Zr   0.69877   0.25100   0.25898   1.000
    Zr12    Zr   0.12335   0.24036   0.10271   1.000
    Zr13    Zr   0.62336   0.24035   0.10271   1.000
    Zr14    Zr   0.45374   0.24854   0.24150   1.000
    Zr15    Zr   0.95374   0.24854   0.24150   1.000
    Zr16    Zr   0.42742   0.73994   0.74610   1.000
    Zr17    Zr   0.92743   0.73992   0.74613   1.000
    Zr18    Zr   0.17042   0.76055   0.75336   1.000
    Zr19    Zr   0.67043   0.76054   0.75337   1.000
    Zr20    Zr   0.07257   0.26011   0.25384   1.000
    Zr21    Zr   0.57258   0.26010   0.25384   1.000
    Zr22    Zr   0.32957   0.23948   0.24660   1.000
    Zr23    Zr   0.82958   0.23948   0.24661   1.000
    Zr24    Zr   0.19909   0.86614   0.79359   1.000
    Zr25    Zr   0.69910   0.86613   0.79360   1.000
    Zr26    Zr   0.36573   0.65009   0.83441   1.000
    Zr27    Zr   0.86575   0.65007   0.83442   1.000
    Zr28    Zr   0.26536   0.64714   0.69572   1.000
    Zr29    Zr   0.76536   0.64713   0.69573   1.000
    Zr30    Zr   0.11180   0.67858   0.85011   1.000
    Zr31    Zr   0.61180   0.67858   0.85011   1.000
    Zr32    Zr   0.02905   0.63425   0.70595   1.000
    Zr33    Zr   0.52906   0.63425   0.70595   1.000
    Zr34    Zr   0.10756   0.85051   0.66510   1.000
    Zr35    Zr   0.60757   0.85050   0.66510   1.000
    Zr36    Zr   0.43679   0.85341   0.80371   1.000
    Zr37    Zr   0.93680   0.85340   0.80371   1.000
    Zr38    Zr   0.37588   0.82181   0.64932   1.000
    Zr39    Zr   0.87588   0.82180   0.64932   1.000
    Zr40    Zr   0.30090   0.13390   0.20637   1.000
    Zr41    Zr   0.80091   0.13389   0.20637   1.000
    Zr42    Zr   0.13425   0.34997   0.16555   1.000
    Zr43    Zr   0.63427   0.34995   0.16555   1.000
    Zr44    Zr   0.23464   0.35290   0.30425   1.000
    Zr45    Zr   0.73464   0.35289   0.30425   1.000
    Zr46    Zr   0.38820   0.32145   0.14986   1.000
    Zr47    Zr   0.88820   0.32145   0.14986   1.000
    Zr48    Zr   0.47094   0.36577   0.29402   1.000
    Zr49    Zr   0.97094   0.36578   0.29402   1.000
    Zr50    Zr   0.39243   0.14952   0.33486   1.000
    Zr51    Zr   0.89244   0.14952   0.33487   1.000
    Zr52    Zr   0.06321   0.14663   0.19626   1.000
    Zr53    Zr   0.56321   0.14662   0.19626   1.000
    Zr54    Zr   0.12412   0.17824   0.35064   1.000
    Zr55    Zr   0.62413   0.17823   0.35064   1.000
    O56     O    0.62881   0.29515   0.13413   1.000
    O57     O    0.59329   0.19348   0.14949   1.000
    O58     O    0.59797   0.25022   0.17828   1.000
    O59     O    0.12880   0.29516   0.13413   1.000
    O60     O    0.09328   0.19349   0.14949   1.000
    O61     O    0.09796   0.25024   0.17828   1.000
    O62     O    0.42097   0.28500   0.19568   1.000
    O63     O    0.35888   0.28047   0.19823   1.000
    O64     O    0.92097   0.28500   0.19568   1.000
    O65     O    0.85889   0.28047   0.19824   1.000
    O66     O    0.60342   0.30502   0.20970   1.000
    O67     O    0.66652   0.30047   0.21227   1.000
    O68     O    0.10341   0.30504   0.20970   1.000
    O69     O    0.16650   0.30049   0.21226   1.000
    O70     O    0.00847   0.19759   0.21888   1.000
    O71     O    0.06789   0.20337   0.22505   1.000
    O72     O    0.50847   0.19758   0.21888   1.000
    O73     O    0.56790   0.20336   0.22505   1.000
    O74     O    0.31523   0.18669   0.22649   1.000
    O75     O    0.24982   0.19246   0.23267   1.000
    O76     O    0.81524   0.18668   0.22649   1.000
    O77     O    0.74984   0.19244   0.23268   1.000
    O78     O    0.89166   0.24401   0.24405   1.000
    O79     O    0.96234   0.30716   0.26776   1.000
    O80     O    0.92309   0.19903   0.28818   1.000
    O81     O    0.39165   0.24401   0.24405   1.000
    O82     O    0.46234   0.30716   0.26776   1.000
    O83     O    0.42308   0.19903   0.28818   1.000
    O84     O    0.28211   0.29619   0.27543   1.000
    O85     O    0.36100   0.19450   0.29073   1.000
    O86     O    0.31247   0.24929   0.32216   1.000
    O87     O    0.78211   0.29618   0.27543   1.000
    O88     O    0.86101   0.19450   0.29074   1.000
    O89     O    0.81248   0.24929   0.32217   1.000
    O90     O    0.63567   0.25555   0.25641   1.000
    O91     O    0.52176   0.31293   0.27393   1.000
    O92     O    0.59835   0.21916   0.30224   1.000
    O93     O    0.13566   0.25556   0.25640   1.000
    O94     O    0.02176   0.31294   0.27393   1.000
    O95     O    0.09834   0.21917   0.30224   1.000
    O96     O    0.21670   0.30196   0.28161   1.000
    O97     O    0.16144   0.21463   0.30481   1.000
    O98     O    0.71671   0.30194   0.28162   1.000
    O99     O    0.66145   0.21461   0.30481   1.000
    O100    O    0.76501   0.30599   0.35099   1.000
    O101    O    0.26500   0.30600   0.35099   1.000
    O102    O    0.34390   0.20431   0.36629   1.000
    O103    O    0.84391   0.20431   0.36630   1.000
    O104    O    0.15610   0.79572   0.63368   1.000
    O105    O    0.23499   0.69403   0.64899   1.000
    O106    O    0.18752   0.75074   0.67781   1.000
    O107    O    0.65611   0.79571   0.63368   1.000
    O108    O    0.73500   0.69403   0.64899   1.000
    O109    O    0.68753   0.75073   0.67781   1.000
    O110    O    0.33855   0.78543   0.69515   1.000
    O111    O    0.40165   0.78087   0.69771   1.000
    O112    O    0.83856   0.78541   0.69516   1.000
    O113    O    0.90166   0.78086   0.69773   1.000
    O114    O    0.63900   0.80552   0.70924   1.000
    O115    O    0.57692   0.80099   0.71179   1.000
    O116    O    0.13899   0.80553   0.70923   1.000
    O117    O    0.07691   0.80099   0.71178   1.000
    O118    O    0.28329   0.69809   0.71835   1.000
    O119    O    0.21789   0.70384   0.72454   1.000
    O120    O    0.78330   0.69808   0.71836   1.000
    O121    O    0.71790   0.70384   0.72455   1.000
    O122    O    0.47824   0.68709   0.72603   1.000
    O123    O    0.53766   0.69287   0.73221   1.000
    O124    O    0.97824   0.68709   0.72604   1.000
    O125    O    0.03766   0.69287   0.73221   1.000
    O126    O    0.36432   0.74449   0.74354   1.000
    O127    O    0.25016   0.80759   0.76728   1.000
    O128    O    0.33348   0.69956   0.78770   1.000
    O129    O    0.86433   0.74447   0.74356   1.000
    O130    O    0.75017   0.80758   0.76730   1.000
    O131    O    0.83349   0.69955   0.78771   1.000
    O132    O    0.43210   0.79667   0.77491   1.000
    O133    O    0.39657   0.69501   0.79026   1.000
    O134    O    0.40203   0.74981   0.82168   1.000
    O135    O    0.93211   0.79666   0.77492   1.000
    O136    O    0.89659   0.69500   0.79028   1.000
    O137    O    0.90204   0.74979   0.82169   1.000
    O138    O    0.10834   0.75602   0.75591   1.000
    O139    O    0.18475   0.81335   0.77348   1.000
    O140    O    0.14111   0.71956   0.80174   1.000
    O141    O    0.60835   0.75601   0.75592   1.000
    O142    O    0.68476   0.81334   0.77349   1.000
    O143    O    0.64111   0.71956   0.80174   1.000
    O144    O    0.99153   0.80244   0.78109   1.000
    O145    O    0.07903   0.71503   0.80429   1.000
    O146    O    0.49153   0.80245   0.78109   1.000
    O147    O    0.57903   0.71503   0.80429   1.000
    O148    O    0.90673   0.80653   0.85049   1.000
    O149    O    0.40671   0.80655   0.85048   1.000
    O150    O    0.37119   0.70488   0.86583   1.000
    O151    O    0.87120   0.70487   0.86584   1.000
    N152    N    0.58844   0.24986   0.74981   1.000
    O153    O    0.68010   0.23462   0.59712   1.000
    O154    O    0.59579   0.26501   0.90287   1.000
    N155    N    0.00000   0.50001   0.49976   1.000
    O156    O    0.90281   0.40590   0.45786   1.000
    O157    O    0.09720   0.59412   0.54187   1.000
    N158    N    0.41156   0.75017   0.25014   1.000
    O159    O    0.40421   0.73502   0.09709   1.000
    O160    O    0.31991   0.76541   0.40284   1.000
    N161    N    0.00000   0.99969   0.99993   1.000
    O162    O    0.16542   0.90603   0.95769   1.000
    O163    O    0.83458   0.09367   0.04222   1.000
    N164    N    0.50000   0.99969   0.99993   1.000
    O165    O    0.66543   0.90602   0.95770   1.000
    O166    O    0.33457   0.09369   0.04222   1.000
    N167    N    0.91157   0.75017   0.25016   1.000
    O168    O    0.90422   0.73501   0.09710   1.000
    O169    O    0.81992   0.76540   0.40285   1.000
    N170    N    0.50000   0.50001   0.49998   1.000
    O171    O    0.59720   0.59412   0.54198   1.000
    O172    O    0.40280   0.40590   0.45798   1.000
    N173    N    0.08843   0.24986   0.74981   1.000
    O174    O    0.09578   0.26502   0.90287   1.000
    O175    O    0.18009   0.23462   0.59712   1.000
loop_
    _geom_bond_atom_site_label_1
    _geom_bond_atom_site_label_2
    _geom_bond_distance
    _geom_bond_site_symmetry_2
    _ccdc_geom_bond_type
    Zr13   O56       1.15040      .   S
    Zr43   O56       1.15040      .   S
    Zr13   O57       1.15279      .   S
    Zr53   O57       1.15279      .   S
    Zr13   O58       1.35573      .   S
    Zr21   O58       1.35573      .   S
    Zr12   O59       1.15040      .   S
    Zr42   O59       1.15040      .   S
    Zr12   O60       1.15279      .   S
    Zr52   O60       1.15279      .   S
    Zr12   O61       1.35573      .   S
    Zr20   O61       1.35573      .   S
    Zr46   O62       1.16109      .   S
    Zr14   O62       1.16109      .   S
    Zr46   O63       1.10781      .   S
    Zr22   O63       1.10781      .   S
    Zr47   O64       1.16110      .   S
    Zr15   O64       1.16110      .   S
    Zr47   O65       1.10785      .   S
    Zr23   O65       1.10785      .   S
    Zr43   O66       1.12672      .   S
    Zr21   O66       1.12672      .   S
    Zr43   O67       1.18329      .   S
    Zr11   O67       1.18329      .   S
    Zr42   O68       1.12672      .   S
    Zr20   O68       1.12672      .   S
    Zr42   O69       1.18324      .   S
    Zr10   O69       1.18324      .   S
    Zr52   O70       1.16293      .   S
    Zr15   O70       1.16293  1_655   S
    Zr52   O71       1.13176      .   S
    Zr20   O71       1.13176      .   S
    Zr53   O72       1.16305      .   S
    Zr14   O72       1.16305      .   S
    Zr53   O73       1.13177      .   S
    Zr21   O73       1.13177      .   S
    Zr40   O74       1.10369      .   S
    Zr22   O74       1.10369      .   S
    Zr40   O75       1.17120      .   S
    Zr10   O75       1.17120      .   S
    Zr41   O76       1.10375      .   S
    Zr23   O76       1.10375      .   S
    Zr41   O77       1.17122      .   S
    Zr11   O77       1.17122      .   S
    Zr15   O78       1.39212      .   S
    Zr23   O78       1.39212      .   S
    Zr15   O79       1.17132      .   S
    Zr49   O79       1.17132      .   S
    Zr15   O80       1.18310      .   S
    Zr51   O80       1.18310      .   S
    Zr14   O81       1.39214      .   S
    Zr22   O81       1.39214      .   S
    Zr14   O82       1.17132      .   S
    Zr48   O82       1.17132      .   S
    Zr14   O83       1.18307      .   S
    Zr50   O83       1.18307      .   S
    Zr22   O84       1.13178      .   S
    Zr44   O84       1.13178      .   S
    Zr22   O85       1.12684      .   S
    Zr50   O85       1.12684      .   S
    Zr22   O86       1.35547      .   S
    Zr8    O86       1.35547      .   S
    Zr23   O87       1.13174      .   S
    Zr45   O87       1.13174      .   S
    Zr23   O88       1.12685      .   S
    Zr51   O88       1.12685      .   S
    Zr23   O89       1.35538      .   S
    Zr9    O89       1.35538      .   S
    Zr21   O90       1.39230      .   S
    Zr11   O90       1.39230      .   S
    Zr21   O91       1.10379      .   S
    Zr48   O91       1.10379      .   S
    Zr21   O92       1.10779      .   S
    Zr55   O92       1.10779      .   S
    Zr20   O93       1.39228      .   S
    Zr10   O93       1.39228      .   S
    Zr20   O94       1.10366      .   S
    Zr49   O94       1.10366  1_655   S
    Zr20   O95       1.10780      .   S
    Zr54   O95       1.10780      .   S
    Zr10   O96       1.16332      .   S
    Zr44   O96       1.16332      .   S
    Zr10   O97       1.16123      .   S
    Zr54   O97       1.16123      .   S
    Zr11   O98       1.16327      .   S
    Zr45   O98       1.16327      .   S
    Zr11   O99       1.16120      .   S
    Zr55   O99       1.16120      .   S
    Zr45   O100      1.15303      .   S
    Zr9    O100      1.15303      .   S
    Zr44   O101      1.15302      .   S
    Zr8    O101      1.15302      .   S
    Zr50   O102      1.14994      .   S
    Zr8    O102      1.14994      .   S
    Zr51   O103      1.14990      .   S
    Zr9    O103      1.14990      .   S
    Zr0    O104      1.14992      .   S
    Zr34   O104      1.14992      .   S
    Zr0    O105      1.15300      .   S
    Zr28   O105      1.15300      .   S
    Zr0    O106      1.35539      .   S
    Zr18   O106      1.35539      .   S
    Zr1    O107      1.14993      .   S
    Zr35   O107      1.14993      .   S
    Zr1    O108      1.15305      .   S
    Zr29   O108      1.15305      .   S
    Zr1    O109      1.35548      .   S
    Zr19   O109      1.35548      .   S
    Zr38   O110      1.16120      .   S
    Zr2    O110      1.16120      .   S
    Zr38   O111      1.10763      .   S
    Zr16   O111      1.10763      .   S
    Zr39   O112      1.16123      .   S
    Zr3    O112      1.16123      .   S
    Zr39   O113      1.10788      .   S
    Zr17   O113      1.10788      .   S
    Zr35   O114      1.12689      .   S
    Zr19   O114      1.12689      .   S
    Zr35   O115      1.18310      .   S
    Zr7    O115      1.18310      .   S
    Zr34   O116      1.12683      .   S
    Zr18   O116      1.12683      .   S
    Zr34   O117      1.18306      .   S
    Zr6    O117      1.18306      .   S
    Zr28   O118      1.16328      .   S
    Zr2    O118      1.16328      .   S
    Zr28   O119      1.13175      .   S
    Zr18   O119      1.13175      .   S
    Zr29   O120      1.16326      .   S
    Zr3    O120      1.16326      .   S
    Zr29   O121      1.13176      .   S
    Zr19   O121      1.13176      .   S
    Zr33   O122      1.10373      .   S
    Zr16   O122      1.10373      .   S
    Zr33   O123      1.17131      .   S
    Zr7    O123      1.17131      .   S
    Zr32   O124      1.10365  1_455   S
    Zr17   O124      1.10365      .   S
    Zr32   O125      1.17126      .   S
    Zr6    O125      1.17126      .   S
    Zr2    O126      1.39223      .   S
    Zr16   O126      1.39223      .   S
    Zr2    O127      1.17120      .   S
    Zr24   O127      1.17120      .   S
    Zr2    O128      1.18329      .   S
    Zr26   O128      1.18329      .   S
    Zr3    O129      1.39231      .   S
    Zr17   O129      1.39231      .   S
    Zr3    O130      1.17121      .   S
    Zr25   O130      1.17121      .   S
    Zr3    O131      1.18331      .   S
    Zr27   O131      1.18331      .   S
    Zr16   O132      1.13194      .   S
    Zr36   O132      1.13194      .   S
    Zr16   O133      1.12680      .   S
    Zr26   O133      1.12680      .   S
    Zr16   O134      1.35589      .   S
    Zr4    O134      1.35589      .   S
    Zr17   O135      1.13175      .   S
    Zr37   O135      1.13175      .   S
    Zr17   O136      1.12673      .   S
    Zr27   O136      1.12673      .   S
    Zr17   O137      1.35572      .   S
    Zr5    O137      1.35572      .   S
    Zr18   O138      1.39214      .   S
    Zr6    O138      1.39214      .   S
    Zr18   O139      1.10372      .   S
    Zr24   O139      1.10372      .   S
    Zr18   O140      1.10784      .   S
    Zr30   O140      1.10784      .   S
    Zr19   O141      1.39214      .   S
    Zr7    O141      1.39214      .   S
    Zr19   O142      1.10370      .   S
    Zr25   O142      1.10370      .   S
    Zr19   O143      1.10780      .   S
    Zr31   O143      1.10780      .   S
    Zr6    O144      1.16294  1_455   S
    Zr37   O144      1.16294      .   S
    Zr6    O145      1.16116      .   S
    Zr30   O145      1.16116      .   S
    Zr7    O146      1.16305      .   S
    Zr36   O146      1.16305      .   S
    Zr7    O147      1.16107      .   S
    Zr31   O147      1.16107      .   S
    Zr37   O148      1.15278      .   S
    Zr5    O148      1.15278      .   S
    Zr36   O149      1.15275      .   S
    Zr4    O149      1.15275      .   S
    Zr26   O150      1.15039      .   S
    Zr4    O150      1.15039      .   S
    Zr27   O151      1.15039      .   S
    Zr5    O151      1.15039      .   S
    N152   O153      2.93444      .   S
    Zr9    O153      3.80360      .   S
    N152   O154      2.93489      .   S
    Zr13   O154      3.80380  1_554   S
    N155   O156      3.30077  1_455   S
    Zr9    O156      4.25195      .   S
    N155   O157      3.30288      .   S
    Zr0    O157      4.25445      .   S
    N158   O159      2.93479      .   S
    Zr4    O159      3.80377  1_556   S
    N158   O160      2.93453      .   S
    Zr0    O160      3.80368      .   S
    N161   O162      3.30409      .   S
    Zr4    O162      4.25566      .   S
    N161   O163      3.30427  1_466   S
    Zr13   O163      4.25632      .   S
    N164   O165      3.30420      .   S
    Zr5    O165      4.25580      .   S
    N164   O166      3.30438  1_566   S
    Zr12   O166      4.25646      .   S
    N167   O168      2.93487      .   S
    Zr5    O168      3.80378  1_556   S
    N167   O169      2.93444      .   S
    Zr1    O169      3.80359      .   S
    N170   O171      3.30184      .   S
    Zr1    O171      4.25333      .   S
    N170   O172      3.30182      .   S
    Zr8    O172      4.25330      .   S
    N173   O174      2.93490      .   S
    Zr12   O174      3.80382  1_554   S
    N173   O175      2.93445      .   S
    Zr8    O175      3.80360      .   S
