# CIF file generated by openbabel 2.4.90, see http://openbabel.sf.net
data_I
_chemical_name_common ''
_cell_length_a 12.416
_cell_length_b 12.439
_cell_length_c 27.049
_cell_angle_alpha 90.02
_cell_angle_beta 89.986
_cell_angle_gamma 119.911
_space_group_name_H-M_alt 'P 1'
_space_group_name_Hall 'P 1'
loop_
    _symmetry_equiv_pos_as_xyz
    x,y,z
loop_
    _atom_site_label
    _atom_site_type_symbol
    _atom_site_fract_x
    _atom_site_fract_y
    _atom_site_fract_z
    _atom_site_occupancy
    C0      C    0.10133   0.88523   0.73003   1.000
    C1      C    0.78529   0.89813   0.39770   1.000
    C2      C    0.11194   0.21298   0.06509   1.000
    C3      C    0.89965   0.11425   0.73002   1.000
    C4      C    0.21470   0.10113   0.39765   1.000
    C5      C    0.88778   0.78569   0.06515   1.000
    C6      C    0.21489   0.11396   0.93709   1.000
    C7      C    0.88675   0.10089   0.26928   1.000
    C8      C    0.89879   0.78548   0.60210   1.000
    C9      C    0.78511   0.88485   0.93708   1.000
    C10     C    0.11318   0.89794   0.26925   1.000
    C11     C    0.10156   0.21325   0.60211   1.000
