# CIF file generated by openbabel 2.4.90, see http://openbabel.sf.net
data_I
_chemical_name_common ''
_cell_length_a 12.416
_cell_length_b 12.439
_cell_length_c 27.049
_cell_angle_alpha 90.02
_cell_angle_beta 89.986
_cell_angle_gamma 119.911
_space_group_name_H-M_alt 'P 1'
_space_group_name_Hall 'P 1'
loop_
    _symmetry_equiv_pos_as_xyz
    x,y,z
loop_
    _atom_site_label
    _atom_site_type_symbol
    _atom_site_fract_x
    _atom_site_fract_y
    _atom_site_fract_z
    _atom_site_occupancy
    N0      N    0.21124   0.40606   0.60971   1.000
    N1      N    0.19673   0.78849   0.27653   1.000
    N2      N    0.19538   0.40566   0.05776   1.000
    N3      N    0.40822   0.19656   0.94380   1.000
    N4      N    0.80438   0.59309   0.05780   1.000
    N5      N    0.78864   0.19669   0.72356   1.000
    N6      N    0.80337   0.21058   0.27659   1.000
    N7      N    0.59171   0.80232   0.94378   1.000
    N8      N    0.21192   0.80244   0.72356   1.000
    N9      N    0.59223   0.78875   0.39070   1.000
    N10     N    0.40768   0.21067   0.39057   1.000
    N11     N    0.78891   0.59280   0.60967   1.000
    Zr12    Zr   0.99959   0.99955   0.66598   1.000
    O13     O    0.09229   0.92084   0.69906   1.000
    O14     O    0.90753   0.82927   0.63334   1.000
    O15     O    0.90766   0.07832   0.69905   1.000
    O16     O    0.09217   0.16970   0.63335   1.000
    Zr17    Zr   0.50000   0.49961   0.49983   1.000
    Zr18    Zr   0.50016   0.99947   0.83376   1.000
    Zr19    Zr   0.99999   0.49944   0.16750   1.000
    Zr20    Zr   0.99998   0.99895   0.33345   1.000
    O21     O    0.82931   0.90698   0.36643   1.000
    O22     O    0.07833   0.90686   0.30059   1.000
    O23     O    0.17064   0.09165   0.36638   1.000
    O24     O    0.92168   0.09158   0.30062   1.000
    Zr25    Zr   0.99993   0.99935   0.00114   1.000
    O26     O    0.17079   0.07812   0.96815   1.000
    O27     O    0.07774   0.16942   0.03390   1.000
    O28     O    0.82913   0.92066   0.96814   1.000
    O29     O    0.92207   0.82929   0.03392   1.000
    O30     O    0.46938   0.07639   0.88451   1.000
    O31     O    0.92356   0.53082   0.11693   1.000
    O32     O    0.60766   0.07643   0.78295   1.000
    O33     O    0.92326   0.39186   0.21791   1.000
    O34     O    0.53078   0.92254   0.88451   1.000
    O35     O    0.39280   0.92257   0.78296   1.000
    O36     O    0.39236   0.46824   0.55047   1.000
    O37     O    0.53084   0.60731   0.44939   1.000
    O38     O    0.46911   0.39200   0.44934   1.000
    O39     O    0.60771   0.53083   0.55045   1.000
    O40     O    0.07679   0.60709   0.21789   1.000
    O41     O    0.07631   0.46798   0.11691   1.000
loop_
    _geom_bond_atom_site_label_1
    _geom_bond_atom_site_label_2
    _geom_bond_distance
    _geom_bond_site_symmetry_2
    _ccdc_geom_bond_type
    Zr12   O13       2.05145  1_655   S
    N8     O13       2.64526      .   S
    Zr12   O14       2.03885      .   S
    N11    O14       2.62867      .   S
    Zr12   O15       2.04392  1_565   S
    N5     O15       2.63815      .   S
    Zr12   O16       2.03819  1_665   S
    N0     O16       2.62765      .   S
    Zr20   O21       2.04368      .   S
    N9     O21       2.63453      .   S
    Zr20   O22       2.03937  1_655   S
    N1     O22       2.62876      .   S
    Zr20   O23       2.04355  1_665   S
    N10    O23       2.63379      .   S
    Zr20   O24       2.04450  1_565   S
    N6     O24       2.63460      .   S
    Zr25   O26       2.04540  1_664   S
    N3     O26       2.63874      .   S
    Zr25   O27       2.03827  1_665   S
    N2     O27       2.62748      .   S
    Zr25   O28       2.04504  1_554   S
    N7     O28       2.63875      .   S
    Zr25   O29       2.03884      .   S
    N4     O29       2.62759      .   S
    N3     O30       2.55202      .   S
    Zr18   O30       1.81921  1_565   S
    N4     O31       2.54797      .   S
    Zr19   O31       1.81517      .   S
    N5     O32       2.55247      .   S
    Zr18   O32       1.82005  1_565   S
    N6     O33       2.54435      .   S
    Zr19   O33       1.81282      .   S
    N7     O34       2.55144      .   S
    Zr18   O34       1.81901      .   S
    N8     O35       2.55171      .   S
    Zr18   O35       1.81890      .   S
    N0     O36       2.54705      .   S
    Zr17   O36       1.81499      .   S
    N9     O37       2.54590      .   S
    Zr17   O37       1.81441      .   S
    N10    O38       2.54538      .   S
    Zr17   O38       1.81404      .   S
    N11    O39       2.54798      .   S
    Zr17   O39       1.81581      .   S
    Zr19   O40       1.81266  1_655   S
    N1     O40       2.54402      .   S
    Zr19   O41       1.81456  1_655   S
    N2     O41       2.54702      .   S
