# CIF file generated by openbabel 2.4.90, see http://openbabel.sf.net
data_I
_chemical_name_common ''
_cell_length_a 12.416
_cell_length_b 12.439
_cell_length_c 27.049
_cell_angle_alpha 90.02
_cell_angle_beta 89.986
_cell_angle_gamma 119.911
_space_group_name_H-M_alt 'P 1'
_space_group_name_Hall 'P 1'
loop_
    _symmetry_equiv_pos_as_xyz
    x,y,z
loop_
    _atom_site_label
    _atom_site_type_symbol
    _atom_site_fract_x
    _atom_site_fract_y
    _atom_site_fract_z
    _atom_site_occupancy
    N0      N    0.21124   0.40606   0.60971   1.000
    N1      N    0.19673   0.78849   0.27653   1.000
    N2      N    0.19538   0.40566   0.05776   1.000
    N3      N    0.40822   0.19656   0.94380   1.000
    N4      N    0.80438   0.59309   0.05780   1.000
    N5      N    0.78864   0.19669   0.72356   1.000
    N6      N    0.80337   0.21058   0.27659   1.000
    N7      N    0.59171   0.80232   0.94378   1.000
    N8      N    0.21192   0.80244   0.72356   1.000
    N9      N    0.59223   0.78875   0.39070   1.000
    N10     N    0.40768   0.21067   0.39057   1.000
    N11     N    0.78891   0.59280   0.60967   1.000
    Zr12    Zr   0.99959   0.99955   0.66598   1.000
    O13     O    0.09229   0.92084   0.69906   1.000
    O14     O    0.90753   0.82927   0.63334   1.000
    O15     O    0.90766   0.07832   0.69905   1.000
    O16     O    0.09217   0.16970   0.63335   1.000
    Zr17    Zr   0.50000   0.49961   0.49983   1.000
    O18     O    0.59316   0.54408   0.54953   1.000
    O19     O    0.40693   0.45501   0.54954   1.000
    O20     O    0.54420   0.59284   0.45023   1.000
    O21     O    0.45574   0.40646   0.45019   1.000
    O22     O    0.48248   0.37754   0.44849   1.000
    O23     O    0.51748   0.62179   0.44856   1.000
    O24     O    0.37780   0.48146   0.55141   1.000
    O25     O    0.62225   0.51759   0.55138   1.000
    Zr26    Zr   0.50016   0.99947   0.83376   1.000
    O27     O    0.59337   0.04867   0.78382   1.000
    O28     O    0.40712   0.95033   0.78384   1.000
    O29     O    0.45599   0.04863   0.88364   1.000
    O30     O    0.54418   0.95030   0.88364   1.000
    O31     O    0.37848   0.89482   0.78207   1.000
    O32     O    0.62195   0.10418   0.78208   1.000
    O33     O    0.48277   0.10415   0.88538   1.000
    O34     O    0.51738   0.89478   0.88538   1.000
    Zr35    Zr   0.99999   0.49944   0.16750   1.000
    O36     O    0.95134   0.54402   0.11785   1.000
    O37     O    0.04852   0.45478   0.11784   1.000
    O38     O    0.95107   0.40629   0.21706   1.000
    O39     O    0.04898   0.59265   0.21704   1.000
    O40     O    0.89545   0.37744   0.21876   1.000
    O41     O    0.10409   0.48118   0.11598   1.000
    O42     O    0.89577   0.51763   0.11600   1.000
    O43     O    0.10461   0.62153   0.21874   1.000
    Zr44    Zr   0.99998   0.99895   0.33345   1.000
    O45     O    0.82931   0.90698   0.36643   1.000
    O46     O    0.07833   0.90686   0.30059   1.000
    O47     O    0.17064   0.09165   0.36638   1.000
    O48     O    0.92168   0.09158   0.30062   1.000
    Zr49    Zr   0.99993   0.99935   0.00114   1.000
    O50     O    0.17079   0.07812   0.96815   1.000
    O51     O    0.07774   0.16942   0.03390   1.000
    O52     O    0.82913   0.92066   0.96814   1.000
    O53     O    0.92207   0.82929   0.03392   1.000
loop_
    _geom_bond_atom_site_label_1
    _geom_bond_atom_site_label_2
    _geom_bond_distance
    _geom_bond_site_symmetry_2
    _ccdc_geom_bond_type
    Zr12   O13       2.05145  1_655   S
    N8     O13       2.64526      .   S
    Zr12   O14       2.03885      .   S
    N11    O14       2.62867      .   S
    Zr12   O15       2.04392  1_565   S
    N5     O15       2.63815      .   S
    Zr12   O16       2.03819  1_665   S
    N0     O16       2.62765      .   S
    Zr17   O18       1.67740      .   S
    N11    O18       2.72985      .   S
    Zr17   O19       1.67669      .   S
    N0     O19       2.72888      .   S
    Zr17   O20       1.67697      .   S
    N9     O20       2.72765      .   S
    Zr17   O21       1.67681      .   S
    N10    O21       2.72698      .   S
    Zr17   O22       1.98751      .   S
    N10    O22       2.38786      .   S
    Zr17   O23       1.98806      .   S
    N9     O23       2.38822      .   S
    Zr17   O24       1.98929      .   S
    N0     O24       2.38920      .   S
    Zr17   O25       1.99017      .   S
    N11    O25       2.39009      .   S
    Zr26   O27       1.68292  1_565   S
    N5     O27       2.73368      .   S
    Zr26   O28       1.68133      .   S
    N8     O28       2.73322      .   S
    Zr26   O29       1.68188  1_565   S
    N3     O29       2.73341      .   S
    Zr26   O30       1.68164      .   S
    N7     O30       2.73290      .   S
    Zr26   O31       1.99255      .   S
    N8     O31       2.39422      .   S
    Zr26   O32       1.99331  1_565   S
    N5     O32       2.39530      .   S
    Zr26   O33       1.99265  1_565   S
    N3     O33       2.39465      .   S
    Zr26   O34       1.99248      .   S
    N7     O34       2.39399      .   S
    Zr35   O36       1.67659      .   S
    N4     O36       2.73004      .   S
    Zr35   O37       1.67609  1_655   S
    N2     O37       2.72906      .   S
    Zr35   O38       1.67537      .   S
    N6     O38       2.72606      .   S
    Zr35   O39       1.67492  1_655   S
    N1     O39       2.72592      .   S
    Zr35   O40       1.98648      .   S
    N6     O40       2.38672      .   S
    Zr35   O41       1.98901  1_655   S
    N2     O41       2.38895      .   S
    Zr35   O42       1.98971      .   S
    N4     O42       2.38984      .   S
    Zr35   O43       1.98658  1_655   S
    N1     O43       2.38616      .   S
    Zr44   O45       2.04368      .   S
    N9     O45       2.63453      .   S
    Zr44   O46       2.03937  1_655   S
    N1     O46       2.62876      .   S
    Zr44   O47       2.04355  1_665   S
    N10    O47       2.63379      .   S
    Zr44   O48       2.04450  1_565   S
    N6     O48       2.63460      .   S
    Zr49   O50       2.04540  1_664   S
    N3     O50       2.63874      .   S
    Zr49   O51       2.03827  1_665   S
    N2     O51       2.62748      .   S
    Zr49   O52       2.04504  1_554   S
    N7     O52       2.63875      .   S
    Zr49   O53       2.03884      .   S
    N4     O53       2.62759      .   S
