# CIF file generated by openbabel 2.4.90, see http://openbabel.sf.net
data_I
_chemical_name_common ''
_cell_length_a 14.01
_cell_length_b 16.787
_cell_length_c 16.818
_cell_angle_alpha 103.804
_cell_angle_beta 109.775
_cell_angle_gamma 109.721
_space_group_name_H-M_alt 'P 1'
_space_group_name_Hall 'P 1'
loop_
    _symmetry_equiv_pos_as_xyz
    x,y,z
loop_
    _atom_site_label
    _atom_site_type_symbol
    _atom_site_fract_x
    _atom_site_fract_y
    _atom_site_fract_z
    _atom_site_occupancy
    Lv0     Lv   0.25016   0.01179   0.98861   1.000
    Lv1     Lv   0.00003   0.50002   0.50000   1.000
    Lv2     Lv   0.50003   0.50002   0.50001   1.000
    Lv3     Lv   0.75015   0.10785   0.89253   1.000
    Lv4     Lv   0.00004   0.99996   0.50000   1.000
    Lv5     Lv   0.74990   0.98824   0.01142   1.000
    Lv6     Lv   0.24992   0.89218   0.10748   1.000
    Lv7     Lv   0.50003   0.50001   0.99995   1.000
