# CIF file generated by openbabel 2.4.90, see http://openbabel.sf.net
data_I
_chemical_name_common ''
_cell_length_a 14.01
_cell_length_b 16.787
_cell_length_c 16.818
_cell_angle_alpha 103.804
_cell_angle_beta 109.775
_cell_angle_gamma 109.721
_space_group_name_H-M_alt 'P 1'
_space_group_name_Hall 'P 1'
loop_
    _symmetry_equiv_pos_as_xyz
    x,y,z
loop_
    _atom_site_label
    _atom_site_type_symbol
    _atom_site_fract_x
    _atom_site_fract_y
    _atom_site_fract_z
    _atom_site_occupancy
    H0      H    0.64880   0.47640   0.10843   1.000
    H1      H    0.12759   0.06364   0.04153   1.000
    H2      H    0.35214   0.48709   0.55120   1.000
    H3      H    0.05776   0.34432   0.16645   1.000
    H4      H    0.85461   0.24910   0.04327   1.000
    H5      H    0.97717   0.11979   0.87446   1.000
    H6      H    0.17617   0.22424   0.00192   1.000
    H7      H    0.29172   0.43058   0.04750   1.000
    H8      H    0.50590   0.16264   0.13839   1.000
    H9      H    0.85157   0.89187   0.52403   1.000
    H10     H    0.37272   0.95897   0.93663   1.000
    H11     H    0.14776   0.44868   0.51176   1.000
    H12     H    0.44246   0.83371   0.65610   1.000
    H13     H    0.64566   0.95700   0.75129   1.000
    H14     H    0.52321   0.12613   0.88050   1.000
    H15     H    0.32414   0.99856   0.77618   1.000
    H16     H    0.20838   0.95227   0.56943   1.000
    H17     H    0.99446   0.86198   0.83780   1.000
    H18     H    0.35127   0.52362   0.89159   1.000
    H19     H    0.87247   0.93639   0.95850   1.000
    H20     H    0.64792   0.51295   0.44882   1.000
    H21     H    0.94229   0.65570   0.83357   1.000
    H22     H    0.14546   0.75091   0.95675   1.000
    H23     H    0.02291   0.88024   0.12556   1.000
    H24     H    0.82390   0.77581   0.99810   1.000
    H25     H    0.70835   0.56943   0.95243   1.000
    H26     H    0.49416   0.83740   0.86164   1.000
    H27     H    0.14850   0.10817   0.47598   1.000
    H28     H    0.62734   0.04107   0.06339   1.000
    H29     H    0.85230   0.55136   0.48820   1.000
    H30     H    0.55760   0.16632   0.34385   1.000
    H31     H    0.35440   0.04303   0.24873   1.000
    H32     H    0.47687   0.87392   0.11950   1.000
    H33     H    0.67593   0.00149   0.22383   1.000
    H34     H    0.79169   0.04776   0.43058   1.000
    H35     H    0.00560   0.13805   0.16222   1.000
    C36     C    0.47862   0.46285   0.06244   1.000
    C37     C    0.58379   0.48681   0.06070   1.000
    C38     C    0.39309   0.47633   0.00000   1.000
    C39     C    0.29993   0.09272   0.06779   1.000
    C40     C    0.18097   0.04067   0.01802   1.000
    C41     C    0.37065   0.06217   0.03931   1.000
    C42     C    0.38411   0.44154   0.43703   1.000
    C43     C    0.46813   0.44759   0.40636   1.000
    C44     C    0.41802   0.49343   0.52932   1.000
    C45     C    0.03631   0.29584   0.09970   1.000
    C46     C    0.92412   0.24267   0.03190   1.000
    C47     C    0.90107   0.17667   0.94969   1.000
    C48     C    0.99281   0.17063   0.93753   1.000
    C49     C    0.10283   0.22790   0.00827   1.000
    C50     C    0.02157   0.93765   0.53736   1.000
    C51     C    0.91645   0.93947   0.51343   1.000
    C52     C    0.10694   0.99935   0.52361   1.000
    C53     C    0.20039   0.93265   0.90765   1.000
    C54     C    0.31934   0.98244   0.95966   1.000
    C55     C    0.12966   0.96106   0.93825   1.000
    C56     C    0.11597   0.56286   0.55848   1.000
    C57     C    0.03205   0.59362   0.55310   1.000
    C58     C    0.08193   0.47062   0.50594   1.000
    C59     C    0.46394   0.90055   0.70462   1.000
    C60     C    0.57616   0.96842   0.75773   1.000
    C61     C    0.59926   0.05072   0.82369   1.000
    C62     C    0.50754   0.06297   0.82971   1.000
    C63     C    0.39747   0.99216   0.77250   1.000
    C64     C    0.52146   0.53720   0.93760   1.000
    C65     C    0.41627   0.51321   0.93931   1.000
    C66     C    0.60697   0.52368   0.99940   1.000
    C67     C    0.70013   0.90731   0.93225   1.000
    C68     C    0.81908   0.95935   0.98201   1.000
    C69     C    0.62940   0.93787   0.96071   1.000
    C70     C    0.61595   0.55850   0.56299   1.000
    C71     C    0.53192   0.55245   0.59366   1.000
    C72     C    0.58204   0.50662   0.47070   1.000
    C73     C    0.96376   0.70419   0.90032   1.000
    C74     C    0.07594   0.75735   0.96812   1.000
    C75     C    0.09900   0.82336   0.05033   1.000
    C76     C    0.00726   0.82940   0.06250   1.000
    C77     C    0.89724   0.77214   0.99176   1.000
    C78     C    0.97851   0.06238   0.46265   1.000
    C79     C    0.08363   0.06056   0.48658   1.000
    C80     C    0.89314   0.00000   0.47640   1.000
    C81     C    0.79967   0.06738   0.09238   1.000
    C82     C    0.68072   0.01760   0.04037   1.000
    C83     C    0.87039   0.03897   0.06177   1.000
    C84     C    0.88409   0.43717   0.44154   1.000
    C85     C    0.96801   0.40641   0.44690   1.000
    C86     C    0.91813   0.52942   0.49409   1.000
    C87     C    0.53613   0.09948   0.29540   1.000
    C88     C    0.42391   0.03162   0.24229   1.000
    C89     C    0.40081   0.94932   0.17632   1.000
    C90     C    0.49253   0.93708   0.17030   1.000
    C91     C    0.60260   0.00788   0.22750   1.000
    N92     N    0.12503   0.28834   0.08927   1.000
    N93     N    0.79042   0.11015   0.87863   1.000
    N94     N    0.37523   0.91103   0.71213   1.000
    N95     N    0.70991   0.12180   0.89019   1.000
    N96     N    0.87504   0.71170   0.91075   1.000
    N97     N    0.20965   0.88987   0.12139   1.000
    N98     N    0.62483   0.08900   0.28788   1.000
    N99     N    0.29016   0.87824   0.10982   1.000
    O100    O    0.28945   0.45468   0.99851   1.000
    O101    O    0.48626   0.10746   0.08531   1.000
    O102    O    0.21056   0.00131   0.54521   1.000
    O103    O    0.01405   0.91506   0.89297   1.000
    O104    O    0.71061   0.54533   0.00150   1.000
    O105    O    0.51379   0.89257   0.91472   1.000
    O106    O    0.78951   0.99872   0.45479   1.000
    O107    O    0.98601   0.08497   0.10706   1.000
loop_
    _geom_bond_atom_site_label_1
    _geom_bond_atom_site_label_2
    _geom_bond_distance
    _geom_bond_site_symmetry_2
    _ccdc_geom_bond_type
    C38    C36       1.42654      .   S
    C38    C65       1.38587  1_554   S
    C38    O100      1.36231  1_554   S
    O104   H25       0.99798  1_554   S
    O104   C66       1.35821  1_554   S
    H6     C49       1.08848      .   S
    C49    N92       1.35004      .   S
    C49    C48       1.38879  1_454   S
    C40    H1        1.08920      .   S
    C40    C39       1.40207      .   S
    C40    C55       1.39504  1_544   S
    C46    H4        1.08810      .   S
    C46    C45       1.38636  1_655   S
    C46    C47       1.40311  1_554   S
    C41    C39       1.42164      .   S
    C41    O101      1.35659      .   S
    C41    C54       1.39500  1_544   S
    C82    H28       1.08923      .   S
    C82    C81       1.40205      .   S
    C82    C69       1.39509  1_544   S
    H7     O100      0.99679  1_554   S
    C75    C76       1.39996      .   S
    C75    N97       1.42113      .   S
    C75    C74       1.40322  1_554   S
    C37    C36       1.40303      .   S
    C37    H0        1.08810      .   S
    C37    C66       1.39523  1_554   S
    C83    C81       1.42161      .   S
    C83    O107      1.35662      .   S
    C83    C68       1.39499  1_544   S
    C76    H23       1.08893      .   S
    C76    C77       1.38879  1_454   S
    O101   H8        0.99892      .   S
    N92    C45       1.35443      .   S
    C45    H3        1.08789      .   S
    O107   H35       0.99909  1_655   S
    N99    N97       1.27567      .   S
    N99    C89       1.42112      .   S
    H32    C90       1.08902      .   S
    C90    C89       1.39997      .   S
    C90    C91       1.38916  1_565   S
    C89    C88       1.40296  1_565   S
    H33    C91       1.08848      .   S
    C91    N98       1.35003      .   S
    C88    H31       1.08808      .   S
    C88    C87       1.38670      .   S
    N98    C87       1.35445      .   S
    C87    H30       1.08789      .   S
    C43    C42       1.42037      .   S
    C43    C72       1.39718      .   S
    H34    O106      0.99786  1_545   S
    C42    C44       1.40359      .   S
    C84    C85       1.42029      .   S
    C84    C86       1.40352      .   S
    C85    C58       1.39679  1_655   S
    H20    C72       1.08666      .   S
    O106   C80       1.36320  1_565   S
    C78    C80       1.42762      .   S
    C78    C79       1.40252  1_655   S
    C72    C70       1.40358      .   S
    H27    C79       1.08807      .   S
    C80    C51       1.38387  1_545   S
    C79    C52       1.39450  1_545   S
    H29    C86       1.08661      .   S
    C86    C57       1.39671  1_655   S
    C58    H11       1.08674      .   S
    C58    C56       1.40350      .   S
    C51    H9        1.08807      .   S
    C51    C50       1.40252  1_655   S
    C52    C50       1.42205      .   S
    C52    O102      1.35854  1_565   S
    C44    H2        1.08666      .   S
    C44    C71       1.39717      .   S
    O102   H16       0.99793  1_545   S
    C57    C56       1.42022      .   S
    C70    C71       1.42037      .   S
    H12    C59       1.08842      .   S
    C59    N94       1.35441      .   S
    C59    C60       1.38669      .   S
    N94    C63       1.35001      .   S
    H13    C60       1.08807      .   S
    C60    C61       1.40294  1_565   S
    C63    H15       1.08852      .   S
    C63    C62       1.38917  1_565   S
    C61    C62       1.40000      .   S
    C61    N95       1.42110      .   S
    C62    H14       1.08899      .   S
    H21    C73       1.08790      .   S
    H17    O103      0.99914  1_655   S
    H26    O105      0.99891      .   S
    H5     C48       1.08905      .   S
    N93    N95       1.27575      .   S
    N93    C47       1.42112      .   S
    H18    C65       1.08804      .   S
    O103   C55       1.35660      .   S
    C73    N96       1.35439      .   S
    C73    C74       1.38636  1_655   S
    C53    C55       1.42158      .   S
    C53    C54       1.40206      .   S
    N96    C77       1.35019      .   S
    O105   C69       1.35658      .   S
    C67    C69       1.42157      .   S
    C67    C68       1.40207      .   S
    H10    C54       1.08931      .   S
    C48    C47       1.39999      .   S
    C64    C65       1.40293      .   S
    C64    C66       1.42150      .   S
    H22    C74       1.08806      .   S
    H19    C68       1.08921      .   S
    C77    H24       1.08840      .   S
