# CIF file generated by openbabel 2.4.90, see http://openbabel.sf.net
data_I
_chemical_name_common ''
_cell_length_a 14.01
_cell_length_b 16.787
_cell_length_c 16.818
_cell_angle_alpha 103.804
_cell_angle_beta 109.775
_cell_angle_gamma 109.721
_space_group_name_H-M_alt 'P 1'
_space_group_name_Hall 'P 1'
loop_
    _symmetry_equiv_pos_as_xyz
    x,y,z
loop_
    _atom_site_label
    _atom_site_type_symbol
    _atom_site_fract_x
    _atom_site_fract_y
    _atom_site_fract_z
    _atom_site_occupancy
    Mc0     Mc   0.94098   0.31892   0.39627   1.000
    Mc1     Mc   0.05908   0.68112   0.60376   1.000
    Mc2     Mc   0.55870   0.60230   0.68121   1.000
    Mc3     Mc   0.44136   0.39774   0.31881   1.000
