# CIF file generated by openbabel 2.4.90, see http://openbabel.sf.net
data_I
_chemical_name_common ''
_cell_length_a 14.01
_cell_length_b 16.787
_cell_length_c 16.818
_cell_angle_alpha 103.804
_cell_angle_beta 109.775
_cell_angle_gamma 109.721
_space_group_name_H-M_alt 'P 1'
_space_group_name_Hall 'P 1'
loop_
    _symmetry_equiv_pos_as_xyz
    x,y,z
loop_
    _atom_site_label
    _atom_site_type_symbol
    _atom_site_fract_x
    _atom_site_fract_y
    _atom_site_fract_z
    _atom_site_occupancy
    Zn0     Zn   0.54021   0.36062   0.27519   1.000
    Zn1     Zn   0.21235   0.79713   0.66157   1.000
    Zn2     Zn   0.96004   0.72506   0.64010   1.000
    Zn3     Zn   0.71215   0.66106   0.79704   1.000
    Zn4     Zn   0.45985   0.63941   0.72483   1.000
    Zn5     Zn   0.78772   0.20291   0.33845   1.000
    Zn6     Zn   0.04002   0.27499   0.35992   1.000
    Zn7     Zn   0.28791   0.33897   0.20298   1.000
    C8      C    0.45920   0.42287   0.12875   1.000
    C9      C    0.34838   0.18208   0.14572   1.000
    C10     C    0.26034   0.38072   0.37646   1.000
    C11     C    0.04107   0.87132   0.57742   1.000
    C12     C    0.15190   0.85478   0.81827   1.000
    C13     C    0.23974   0.62329   0.61935   1.000
    C14     C    0.54084   0.57710   0.87123   1.000
    C15     C    0.65168   0.81797   0.85428   1.000
    C16     C    0.73972   0.61933   0.62356   1.000
    C17     C    0.95901   0.12872   0.42260   1.000
    C18     C    0.84815   0.14527   0.18174   1.000
    C19     C    0.76032   0.37674   0.38070   1.000
    O20     O    0.36144   0.40101   0.12931   1.000
    O21     O    0.53943   0.41157   0.18026   1.000
    O22     O    0.28111   0.21153   0.15960   1.000
    O23     O    0.45866   0.22576   0.19415   1.000
    O24     O    0.21564   0.34726   0.28867   1.000
    O25     O    0.19884   0.36400   0.41814   1.000
    O26     O    0.13878   0.87063   0.59919   1.000
    O27     O    0.96109   0.82007   0.58906   1.000
    O28     O    0.21915   0.84094   0.78878   1.000
    O29     O    0.04162   0.80625   0.77470   1.000
    O30     O    0.28458   0.71123   0.65308   1.000
    O31     O    0.30116   0.58136   0.63562   1.000
    O32     O    0.63864   0.59903   0.87072   1.000
    O33     O    0.46066   0.58848   0.81978   1.000
    O34     O    0.71895   0.78849   0.84037   1.000
    O35     O    0.54139   0.77426   0.80589   1.000
    O36     O    0.78442   0.65278   0.71135   1.000
    O37     O    0.80122   0.63605   0.58188   1.000
    O38     O    0.86129   0.12939   0.40080   1.000
    O39     O    0.03899   0.17997   0.41096   1.000
    O40     O    0.78091   0.15910   0.21124   1.000
    O41     O    0.95843   0.19377   0.22530   1.000
    O42     O    0.71548   0.28880   0.34693   1.000
    O43     O    0.69890   0.41867   0.36440   1.000
loop_
    _geom_bond_atom_site_label_1
    _geom_bond_atom_site_label_2
    _geom_bond_distance
    _geom_bond_site_symmetry_2
    _ccdc_geom_bond_type
    C8     O20       1.29681      .   S
    C8     O21       1.27011      .   S
    O20    Zn7       2.10620      .   S
    C9     O22       1.26310      .   S
    C9     O23       1.29885      .   S
    O22    Zn7       2.04656      .   S
    O21    Zn0       1.98156      .   S
    C18    O40       1.26344      .   S
    C18    O41       1.29895      .   S
    O23    Zn0       2.00415      .   S
    Zn7    O24       2.02685      .   S
    O40    Zn5       2.04717      .   S
    O41    Zn6       2.00382  1_655   S
    Zn0    O43       1.93045      .   S
    O24    C10       1.27624      .   S
    Zn5    O42       2.02683      .   S
    Zn5    O38       2.10466      .   S
    O42    C19       1.27631      .   S
    Zn6    O39       1.98176      .   S
    Zn6    O25       1.93026      .   S
    O43    C19       1.28535      .   S
    C10    O25       1.28531      .   S
    O38    C17       1.29684      .   S
    O39    C17       1.26972  1_455   S
    C11    O27       1.26976  1_455   S
    C11    O26       1.29684      .   S
    O37    C16       1.28531      .   S
    O37    Zn2       1.93027      .   S
    O27    Zn2       1.98173      .   S
    O26    Zn1       2.10473      .   S
    C13    O31       1.28534      .   S
    C13    O30       1.27632      .   S
    C16    O36       1.27624      .   S
    O31    Zn4       1.93043      .   S
    Zn2    O29       2.00352  1_655   S
    O30    Zn1       2.02681      .   S
    Zn1    O28       2.04722      .   S
    O36    Zn3       2.02691      .   S
    Zn4    O35       2.00411      .   S
    Zn4    O33       1.98162      .   S
    O29    C12       1.29897      .   S
    O28    C12       1.26346      .   S
    Zn3    O34       2.04640      .   S
    Zn3    O32       2.10614      .   S
    O35    C15       1.29887      .   S
    O33    C14       1.27016      .   S
    O34    C15       1.26353      .   S
    O32    C14       1.29685      .   S
