# CIF file generated by openbabel 2.4.90, see http://openbabel.sf.net
data_I
_chemical_name_common ''
_cell_length_a 14.01
_cell_length_b 16.787
_cell_length_c 16.818
_cell_angle_alpha 103.804
_cell_angle_beta 109.775
_cell_angle_gamma 109.721
_space_group_name_H-M_alt 'P 1'
_space_group_name_Hall 'P 1'
loop_
    _symmetry_equiv_pos_as_xyz
    x,y,z
loop_
    _atom_site_label
    _atom_site_type_symbol
    _atom_site_fract_x
    _atom_site_fract_y
    _atom_site_fract_z
    _atom_site_occupancy
    Zr0     Zr   0.28791   0.33897   0.20298   1.000
    Zr1     Zr   0.54021   0.36062   0.27519   1.000
    Zr2     Zr   0.21235   0.79713   0.66157   1.000
    Zr3     Zr   0.96004   0.72506   0.64010   1.000
    Zr4     Zr   0.71215   0.66106   0.79704   1.000
    Zr5     Zr   0.45985   0.63941   0.72483   1.000
    Zr6     Zr   0.78772   0.20291   0.33845   1.000
    Zr7     Zr   0.04002   0.27499   0.35992   1.000
    N8      N    0.25016   0.01179   0.98861   1.000
    N9      N    0.00003   0.50002   0.50000   1.000
    O10     O    0.90267   0.28992   0.38181   1.000
    O11     O    0.96574   0.30794   0.38718   1.000
    O12     O    0.03432   0.69210   0.61284   1.000
    O13     O    0.09740   0.71012   0.61821   1.000
    N14     N    0.50003   0.50002   0.50001   1.000
    O15     O    0.53398   0.61158   0.69211   1.000
    O16     O    0.59706   0.61699   0.71017   1.000
    O17     O    0.40300   0.38305   0.28985   1.000
    O18     O    0.46607   0.38846   0.30790   1.000
    N19     N    0.75015   0.10785   0.89253   1.000
    O20     O    0.52197   0.98097   0.78969   1.000
    O21     O    0.97831   0.21075   0.01933   1.000
    N22     N    0.00004   0.99996   0.50000   1.000
    N23     N    0.74990   0.98824   0.01142   1.000
    N24     N    0.24992   0.89218   0.10748   1.000
    O25     O    0.47810   0.01907   0.21032   1.000
    O26     O    0.02176   0.78928   0.98069   1.000
    N27     N    0.50003   0.50001   0.99995   1.000
    C28     C    0.86250   0.16605   0.20609   1.000
    O29     O    0.82341   0.17353   0.24047   1.000
    O30     O    0.82470   0.10667   0.14017   1.000
    O31     O    0.93086   0.20021   0.24935   1.000
    C32     C    0.72490   0.36141   0.36401   1.000
    O33     O    0.67223   0.37553   0.34190   1.000
    O34     O    0.81801   0.40745   0.40979   1.000
    O35     O    0.73825   0.30363   0.35335   1.000
    C36     C    0.45335   0.41182   0.14611   1.000
    O37     O    0.46891   0.44162   0.09694   1.000
    O38     O    0.38901   0.39090   0.15613   1.000
    O39     O    0.49659   0.39896   0.18692   1.000
    C40     C    0.22494   0.36399   0.36109   1.000
    O41     O    0.17218   0.34174   0.37506   1.000
    O42     O    0.31803   0.40978   0.40723   1.000
    O43     O    0.23836   0.35355   0.30346   1.000
    C44     C    0.36271   0.20646   0.16649   1.000
    O45     O    0.43107   0.24983   0.20058   1.000
    O46     O    0.32494   0.14053   0.10709   1.000
    O47     O    0.32361   0.24086   0.17389   1.000
    C48     C    0.95310   0.14603   0.41145   1.000
    O49     O    0.88880   0.15609   0.39054   1.000
    O50     O    0.99630   0.18675   0.39845   1.000
    O51     O    0.96875   0.09689   0.44138   1.000
    C52     C    0.77512   0.63605   0.63893   1.000
    O53     O    0.82788   0.65830   0.62496   1.000
    O54     O    0.76170   0.64649   0.69656   1.000
    O55     O    0.68203   0.59026   0.59279   1.000
    C56     C    0.63734   0.79357   0.83351   1.000
    O57     O    0.56898   0.75020   0.79944   1.000
    O58     O    0.67644   0.75918   0.82611   1.000
    O59     O    0.67512   0.85951   0.89293   1.000
    C60     C    0.13756   0.83399   0.79392   1.000
    O61     O    0.17665   0.82651   0.75955   1.000
    O62     O    0.06920   0.79982   0.75066   1.000
    O63     O    0.17536   0.89337   0.85985   1.000
    C64     C    0.27516   0.63863   0.63602   1.000
    O65     O    0.32783   0.62451   0.65812   1.000
    O66     O    0.18205   0.59259   0.59024   1.000
    O67     O    0.26181   0.69640   0.64667   1.000
    C68     C    0.54671   0.58820   0.85391   1.000
    O69     O    0.53115   0.55839   0.90305   1.000
    O70     O    0.61105   0.60913   0.84389   1.000
    O71     O    0.50348   0.60107   0.81311   1.000
    C72     C    0.04698   0.85401   0.58856   1.000
    O73     O    0.00377   0.81329   0.60157   1.000
    O74     O    0.11127   0.84395   0.60947   1.000
    O75     O    0.03133   0.90312   0.55863   1.000
loop_
    _geom_bond_atom_site_label_1
    _geom_bond_atom_site_label_2
    _geom_bond_distance
    _geom_bond_site_symmetry_2
    _ccdc_geom_bond_type
    N9     O10       3.13434  1_455   S
    Zr6    O10       1.53891      .   S
    N9     O11       3.10587  1_455   S
    Zr7    O11       1.47967  1_455   S
    N9     O12       3.10603      .   S
    Zr3    O12       1.47964  1_655   S
    N9     O13       3.13446      .   S
    Zr2    O13       1.53897      .   S
    N14    O15       3.10535      .   S
    Zr5    O15       1.48027      .   S
    N14    O16       3.13552      .   S
    Zr4    O16       1.53845      .   S
    N14    O17       3.13552      .   S
    Zr0    O17       1.53844      .   S
    N14    O18       3.10534      .   S
    Zr1    O18       1.48032      .   S
    N19    O20       2.76642  1_545   S
    Zr2    O20       3.80142      .   S
    N19    O21       2.76630  1_556   S
    Zr0    O21       3.80107  1_455   S
    N24    O25       2.76643  1_565   S
    Zr6    O25       3.80145      .   S
    N24    O26       2.76631  1_554   S
    Zr4    O26       3.80114  1_655   S
    C28    O29       0.93593      .   S
    Zr6    O29       1.88276      .   S
    C28    O30       1.10567      .   S
    N23    O30       2.17786  1_565   S
    C28    O31       0.85687      .   S
    Zr7    O31       1.74315  1_455   S
    C32    O33       0.84466      .   S
    Zr1    O33       1.70058      .   S
    C32    O34       1.11703      .   S
    N9     O34       2.19143  1_455   S
    C32    O35       1.03435      .   S
    Zr6    O35       2.02686      .   S
    C36    O37       1.10791      .   S
    N27    O37       2.18339  1_556   S
    C36    O38       0.93893      .   S
    Zr0    O38       1.90709      .   S
    C36    O39       0.87300      .   S
    Zr1    O39       1.76039      .   S
    C40    O41       0.84501      .   S
    Zr7    O41       1.70102      .   S
    C40    O42       1.11716      .   S
    N14    O42       2.19180      .   S
    C40    O43       1.03440      .   S
    Zr0    O43       2.02695      .   S
    C44    O45       0.85711      .   S
    Zr1    O45       1.74372      .   S
    C44    O46       1.10565      .   S
    N8     O46       2.17783  1_556   S
    C44    O47       0.93506      .   S
    Zr0    O47       1.88131      .   S
    C48    O49       0.93825      .   S
    Zr6    O49       1.90549      .   S
    C48    O50       0.87367      .   S
    Zr7    O50       1.76157  1_455   S
    C48    O51       1.10787      .   S
    N22    O51       2.18322  1_465   S
    C52    O53       0.84502      .   S
    Zr3    O53       1.70104      .   S
    C52    O54       1.03440      .   S
    Zr4    O54       2.02697      .   S
    C52    O55       1.11716      .   S
    N14    O55       2.19180      .   S
    C56    O57       0.85711      .   S
    Zr5    O57       1.74369      .   S
    C56    O58       0.93512      .   S
    Zr4    O58       1.88128      .   S
    C56    O59       1.10574      .   S
    N23    O59       2.17791  1_554   S
    C60    O61       0.93590      .   S
    Zr2    O61       1.88275      .   S
    C60    O62       0.85687      .   S
    Zr3    O62       1.74303  1_655   S
    C60    O63       1.10572      .   S
    N8     O63       2.17792  1_545   S
    C64    O65       0.84465      .   S
    Zr5    O65       1.70056      .   S
    C64    O66       1.11704      .   S
    N9     O66       2.19146      .   S
    C64    O67       1.03435      .   S
    Zr2    O67       2.02684      .   S
    C68    O69       1.10748      .   S
    N27    O69       2.18202      .   S
    C68    O70       0.93891      .   S
    Zr4    O70       1.90703      .   S
    C68    O71       0.87305      .   S
    Zr5    O71       1.76048      .   S
    C72    O73       0.87373      .   S
    Zr3    O73       1.76163  1_655   S
    C72    O74       0.93823      .   S
    Zr2    O74       1.90548      .   S
    C72    O75       1.10740      .   S
    N22    O75       2.18186      .   S
