# CIF file generated by openbabel 2.4.90, see http://openbabel.sf.net
data_I
_chemical_name_common ''
_cell_length_a 12.599
_cell_length_b 17.292
_cell_length_c 19.294
_cell_angle_alpha 65.181
_cell_angle_beta 84.55
_cell_angle_gamma 83.659
_space_group_name_H-M_alt 'P 1'
_space_group_name_Hall 'P 1'
loop_
    _symmetry_equiv_pos_as_xyz
    x,y,z
loop_
    _atom_site_label
    _atom_site_type_symbol
    _atom_site_fract_x
    _atom_site_fract_y
    _atom_site_fract_z
    _atom_site_occupancy
    Zr0     Zr   0.35994   0.23529   0.35010   1.000
    Zr1     Zr   0.35994   0.23530   0.85014   1.000
    Zr2     Zr   0.35994   0.73531   0.35010   1.000
    Zr3     Zr   0.35994   0.73531   0.85014   1.000
    Zr4     Zr   0.85994   0.23529   0.35010   1.000
    Zr5     Zr   0.85993   0.23530   0.85014   1.000
    Zr6     Zr   0.85993   0.73531   0.35015   1.000
    Zr7     Zr   0.85993   0.73531   0.85014   1.000
    Zr8     Zr   0.39296   0.43134   0.46672   1.000
    Zr9     Zr   0.39296   0.43134   0.96671   1.000
    Zr10    Zr   0.39296   0.93135   0.46672   1.000
    Zr11    Zr   0.39296   0.93136   0.96671   1.000
    Zr12    Zr   0.89296   0.43134   0.46672   1.000
    Zr13    Zr   0.89296   0.43134   0.96671   1.000
    Zr14    Zr   0.89296   0.93135   0.46672   1.000
    Zr15    Zr   0.89295   0.93136   0.96671   1.000
    Zr16    Zr   0.14005   0.26473   0.14984   1.000
    Zr17    Zr   0.14005   0.26473   0.64983   1.000
    Zr18    Zr   0.14005   0.76474   0.14984   1.000
    Zr19    Zr   0.14004   0.76475   0.64983   1.000
    Zr20    Zr   0.64005   0.26473   0.14984   1.000
    Zr21    Zr   0.64004   0.26473   0.64983   1.000
    Zr22    Zr   0.64004   0.76474   0.14984   1.000
    Zr23    Zr   0.64004   0.76475   0.64983   1.000
    Zr24    Zr   0.10703   0.06868   0.03327   1.000
    Zr25    Zr   0.10703   0.06869   0.53326   1.000
    Zr26    Zr   0.10703   0.56869   0.03327   1.000
    Zr27    Zr   0.10702   0.56870   0.53326   1.000
    Zr28    Zr   0.60703   0.06868   0.03327   1.000
    Zr29    Zr   0.60702   0.06869   0.53326   1.000
    Zr30    Zr   0.60702   0.56869   0.03327   1.000
    Zr31    Zr   0.60702   0.56870   0.53326   1.000
    N32     N    0.37300   0.68291   0.07204   1.000
    O33     O    0.27332   0.64691   0.06543   1.000
    O34     O    0.47307   0.70230   0.09756   1.000
    O35     O    0.37603   0.76725   0.05138   1.000
    O36     O    0.37156   0.68273   0.00138   1.000
    N37     N    0.37300   0.18290   0.07206   1.000
    O38     O    0.27332   0.14690   0.06544   1.000
    O39     O    0.37603   0.26723   0.05139   1.000
    O40     O    0.37156   0.18272   0.00139   1.000
    O41     O    0.47308   0.20229   0.09757   1.000
    N42     N    0.36775   0.39067   0.15758   1.000
    O43     O    0.45603   0.44502   0.11100   1.000
    O44     O    0.27641   0.44642   0.11044   1.000
    N45     N    0.13223   0.10936   0.84232   1.000
    O46     O    0.22358   0.05361   0.88950   1.000
    O47     O    0.04396   0.05501   0.88884   1.000
    N48     N    0.13223   0.60937   0.84232   1.000
    O49     O    0.22357   0.55362   0.88950   1.000
    O50     O    0.04396   0.55502   0.88884   1.000
    N51     N    0.37300   0.68292   0.57207   1.000
    O52     O    0.37156   0.68274   0.50138   1.000
    O53     O    0.37603   0.76725   0.55139   1.000
    O54     O    0.47307   0.70231   0.59757   1.000
    O55     O    0.27332   0.64692   0.56543   1.000
    N56     N    0.63223   0.10935   0.34240   1.000
    O57     O    0.54396   0.05501   0.38898   1.000
    O58     O    0.72358   0.05361   0.38955   1.000
    N59     N    0.13224   0.10935   0.34240   1.000
    O60     O    0.22358   0.05361   0.38955   1.000
    O61     O    0.04396   0.05501   0.38898   1.000
    N62     N    0.13224   0.60937   0.34240   1.000
    O63     O    0.04396   0.55501   0.38898   1.000
    O64     O    0.22358   0.55362   0.38955   1.000
    N65     N    0.36775   0.89068   0.15758   1.000
    O66     O    0.45603   0.94503   0.11100   1.000
    O67     O    0.27641   0.94643   0.11044   1.000
    N68     N    0.62698   0.81714   0.92789   1.000
    O69     O    0.62395   0.73281   0.94857   1.000
    O70     O    0.62842   0.81732   0.99858   1.000
    O71     O    0.72666   0.85314   0.93453   1.000
    O72     O    0.52690   0.79775   0.90238   1.000
    N73     N    0.12699   0.31712   0.42789   1.000
    O74     O    0.12395   0.23279   0.44858   1.000
    O75     O    0.22667   0.35312   0.43453   1.000
    O76     O    0.02691   0.29773   0.40239   1.000
    O77     O    0.12843   0.31730   0.49858   1.000
    N78     N    0.86775   0.39067   0.15758   1.000
    O79     O    0.95603   0.44502   0.11100   1.000
    O80     O    0.77641   0.44642   0.11044   1.000
    N81     N    0.62698   0.81714   0.42790   1.000
    O82     O    0.72666   0.85314   0.43454   1.000
    O83     O    0.52691   0.79774   0.40240   1.000
    O84     O    0.62395   0.73280   0.44858   1.000
    O85     O    0.62842   0.81732   0.49858   1.000
    N86     N    0.36775   0.39067   0.65757   1.000
    O87     O    0.45602   0.44503   0.61099   1.000
    O88     O    0.27641   0.44642   0.61042   1.000
    N89     N    0.87300   0.18290   0.57207   1.000
    O90     O    0.97307   0.20229   0.59757   1.000
    O91     O    0.87155   0.18272   0.50138   1.000
    O92     O    0.77332   0.14690   0.56543   1.000
    O93     O    0.87603   0.26724   0.55139   1.000
    N94     N    0.37300   0.18290   0.57206   1.000
    O95     O    0.37156   0.18272   0.50137   1.000
    O96     O    0.47307   0.20229   0.59756   1.000
    O97     O    0.37603   0.26723   0.55139   1.000
    O98     O    0.27332   0.14691   0.56543   1.000
    N99     N    0.63223   0.10936   0.84232   1.000
    O100    O    0.54396   0.05501   0.88884   1.000
    O101    O    0.72357   0.05361   0.88950   1.000
    N102    N    0.87299   0.68292   0.57207   1.000
    O103    O    0.97307   0.70231   0.59757   1.000
    O104    O    0.87155   0.68274   0.50139   1.000
    O105    O    0.77331   0.64692   0.56543   1.000
    O106    O    0.87603   0.76725   0.55139   1.000
    N107    N    0.87300   0.68291   0.07208   1.000
    O108    O    0.87603   0.76725   0.05140   1.000
    O109    O    0.97307   0.70230   0.09758   1.000
    O110    O    0.77332   0.64691   0.06544   1.000
    O111    O    0.87155   0.68273   0.00139   1.000
    N112    N    0.36775   0.89069   0.65757   1.000
    O113    O    0.27641   0.94643   0.61042   1.000
    O114    O    0.45602   0.94503   0.61099   1.000
    N115    N    0.12698   0.31713   0.92788   1.000
    O116    O    0.22666   0.35313   0.93452   1.000
    O117    O    0.02691   0.29773   0.90239   1.000
    O118    O    0.12395   0.23279   0.94857   1.000
    O119    O    0.12843   0.31731   0.99857   1.000
    N120    N    0.12698   0.81714   0.92788   1.000
    O121    O    0.12395   0.73281   0.94857   1.000
    O122    O    0.12842   0.81732   0.99857   1.000
    O123    O    0.02690   0.79775   0.90237   1.000
    O124    O    0.22666   0.85314   0.93452   1.000
    N125    N    0.62698   0.31713   0.92778   1.000
    O126    O    0.72666   0.35312   0.93447   1.000
    O127    O    0.52691   0.29773   0.90234   1.000
    O128    O    0.62395   0.23279   0.94852   1.000
    O129    O    0.62842   0.31731   0.99835   1.000
    N130    N    0.86775   0.89068   0.15758   1.000
    O131    O    0.77641   0.94643   0.11044   1.000
    O132    O    0.95602   0.94503   0.11100   1.000
    N133    N    0.12698   0.81714   0.42790   1.000
    O134    O    0.12843   0.81732   0.49858   1.000
    O135    O    0.12395   0.73280   0.44858   1.000
    O136    O    0.02691   0.79774   0.40241   1.000
    O137    O    0.22667   0.85314   0.43454   1.000
    N138    N    0.63223   0.60936   0.34240   1.000
    O139    O    0.72357   0.55362   0.38955   1.000
    O140    O    0.54396   0.55501   0.38898   1.000
    N141    N    0.87300   0.18290   0.07208   1.000
    O142    O    0.77332   0.14690   0.06544   1.000
    O143    O    0.87603   0.26723   0.05140   1.000
    O144    O    0.97308   0.20229   0.09758   1.000
    O145    O    0.87156   0.18272   0.00139   1.000
    N146    N    0.62698   0.31712   0.42790   1.000
    O147    O    0.62843   0.31730   0.49858   1.000
    O148    O    0.72667   0.35312   0.43454   1.000
    O149    O    0.62395   0.23279   0.44858   1.000
    O150    O    0.52691   0.29773   0.40240   1.000
    N151    N    0.86775   0.39067   0.65757   1.000
    O152    O    0.95602   0.44503   0.61099   1.000
    O153    O    0.77640   0.44642   0.61042   1.000
    N154    N    0.63223   0.60937   0.84232   1.000
    O155    O    0.72357   0.55362   0.88950   1.000
    O156    O    0.54395   0.55502   0.88884   1.000
    N157    N    0.86774   0.89069   0.65757   1.000
    O158    O    0.95602   0.94503   0.61099   1.000
    O159    O    0.77640   0.94643   0.61042   1.000
    O160    O    0.13523   0.15913   0.77861   1.000
    O161    O    0.29719   0.21075   0.59587   1.000
    O162    O    0.28368   0.35962   0.65527   1.000
    O163    O    0.96306   0.35837   0.65583   1.000
    O164    O    0.44908   0.14717   0.05780   1.000
    O165    O    0.62478   0.08864   0.90581   1.000
    O166    O    0.05091   0.85287   0.94215   1.000
    O167    O    0.87520   0.91140   0.09408   1.000
    O168    O    0.28368   0.85963   0.65527   1.000
    O169    O    0.96306   0.85838   0.65583   1.000
    O170    O    0.29719   0.71076   0.59587   1.000
    O171    O    0.13523   0.65915   0.77861   1.000
    O172    O    0.37520   0.91140   0.59407   1.000
    O173    O    0.55091   0.85286   0.44218   1.000
    O174    O    0.55091   0.35285   0.44218   1.000
    O175    O    0.37520   0.41138   0.59407   1.000
    O176    O    0.79719   0.21074   0.09588   1.000
    O177    O    0.94908   0.14717   0.05781   1.000
    O178    O    0.29719   0.21075   0.09588   1.000
    O179    O    0.28369   0.35961   0.15528   1.000
    O180    O    0.96307   0.35837   0.15584   1.000
    O181    O    0.13524   0.15913   0.27865   1.000
    O182    O    0.46307   0.35837   0.15584   1.000
    O183    O    0.78368   0.35961   0.15528   1.000
    O184    O    0.63523   0.15913   0.27865   1.000
    O185    O    0.37520   0.91140   0.09408   1.000
    O186    O    0.28368   0.85963   0.15528   1.000
    O187    O    0.46307   0.85838   0.15584   1.000
    O188    O    0.36475   0.84090   0.22132   1.000
    O189    O    0.37520   0.41138   0.09408   1.000
    O190    O    0.36475   0.34089   0.22132   1.000
    O191    O    0.20279   0.78929   0.90408   1.000
    O192    O    0.96307   0.85838   0.15584   1.000
    O193    O    0.78368   0.85963   0.15528   1.000
    O194    O    0.86475   0.84090   0.22133   1.000
    O195    O    0.87520   0.91140   0.59407   1.000
    O196    O    0.05091   0.85286   0.44218   1.000
    O197    O    0.62478   0.58866   0.90581   1.000
    O198    O    0.44907   0.64719   0.05779   1.000
    O199    O    0.71630   0.64043   0.84466   1.000
    O200    O    0.53691   0.64167   0.84405   1.000
    O201    O    0.63523   0.65915   0.77861   1.000
    O202    O    0.36475   0.84091   0.72132   1.000
    O203    O    0.46306   0.85838   0.65583   1.000
    O204    O    0.94907   0.64719   0.05781   1.000
    O205    O    0.12478   0.58866   0.90581   1.000
    O206    O    0.55091   0.85287   0.94216   1.000
    O207    O    0.05091   0.35285   0.94216   1.000
    O208    O    0.20279   0.28928   0.90408   1.000
    O209    O    0.87520   0.41138   0.09408   1.000
    O210    O    0.12478   0.08864   0.90581   1.000
    O211    O    0.55091   0.35285   0.94202   1.000
    O212    O    0.70279   0.78929   0.40410   1.000
    O213    O    0.86475   0.34089   0.22132   1.000
    O214    O    0.70279   0.28928   0.90403   1.000
    O215    O    0.29719   0.71076   0.09587   1.000
    O216    O    0.13523   0.65914   0.27865   1.000
    O217    O    0.63523   0.15913   0.77861   1.000
    O218    O    0.53691   0.14166   0.84405   1.000
    O219    O    0.71630   0.14041   0.84466   1.000
    O220    O    0.62478   0.08864   0.40590   1.000
    O221    O    0.71630   0.14041   0.34469   1.000
    O222    O    0.53692   0.14165   0.34413   1.000
    O223    O    0.94907   0.64719   0.55779   1.000
    O224    O    0.79718   0.71076   0.59587   1.000
    O225    O    0.21630   0.14041   0.84466   1.000
    O226    O    0.03692   0.14166   0.84405   1.000
    O227    O    0.86475   0.84091   0.72132   1.000
    O228    O    0.78368   0.85963   0.65527   1.000
    O229    O    0.79719   0.71076   0.09588   1.000
    O230    O    0.63523   0.65914   0.27865   1.000
    O231    O    0.53692   0.64167   0.34413   1.000
    O232    O    0.71630   0.64042   0.34470   1.000
    O233    O    0.62478   0.58866   0.40590   1.000
    O234    O    0.44907   0.14718   0.55779   1.000
    O235    O    0.70280   0.28927   0.40409   1.000
    O236    O    0.46307   0.35837   0.65583   1.000
    O237    O    0.36475   0.34089   0.72132   1.000
    O238    O    0.20280   0.78929   0.40409   1.000
    O239    O    0.94907   0.14718   0.55780   1.000
    O240    O    0.12479   0.08864   0.40590   1.000
    O241    O    0.78368   0.35962   0.65527   1.000
    O242    O    0.79719   0.21075   0.59587   1.000
    O243    O    0.87520   0.41138   0.59407   1.000
    O244    O    0.05091   0.35285   0.44217   1.000
    O245    O    0.70279   0.78929   0.90409   1.000
    O246    O    0.03691   0.64167   0.84405   1.000
    O247    O    0.86475   0.34089   0.72132   1.000
    O248    O    0.03692   0.14165   0.34413   1.000
    O249    O    0.21630   0.64043   0.84466   1.000
    O250    O    0.21630   0.64042   0.34469   1.000
    O251    O    0.20280   0.28927   0.40408   1.000
    O252    O    0.21630   0.14041   0.34469   1.000
    O253    O    0.03692   0.64167   0.34415   1.000
    O254    O    0.12478   0.58866   0.40590   1.000
    O255    O    0.44907   0.64719   0.55780   1.000
loop_
    _geom_bond_atom_site_label_1
    _geom_bond_atom_site_label_2
    _geom_bond_distance
    _geom_bond_site_symmetry_2
    _ccdc_geom_bond_type
    N32    O33       1.50029      .   S
    Zr26   O33       2.86027      .   S
    N32    O34       1.51471      .   S
    Zr22   O34       2.90308      .   S
    N32    O35       1.34480      .   S
    Zr11   O35       2.63493  1_556   S
    N32    O36       1.36659      .   S
    Zr3    O36       2.68088  1_556   S
    N37    O38       1.50036      .   S
    Zr24   O38       2.86040      .   S
    N37    O39       1.34475      .   S
    Zr9    O39       2.63498  1_556   S
    N37    O40       1.36679      .   S
    Zr1    O40       2.68108  1_556   S
    N37    O41       1.51462      .   S
    Zr20   O41       2.90292      .   S
    N42    O43       1.50327      .   S
    Zr30   O43       2.84711      .   S
    N42    O44       1.51617      .   S
    Zr26   O44       2.86455      .   S
    N45    O46       1.51639      .   S
    Zr11   O46       2.86458  1_565   S
    N45    O47       1.50292      .   S
    Zr15   O47       2.84735  1_665   S
    N48    O49       1.51644      .   S
    Zr9    O49       2.86477      .   S
    N48    O50       1.50297      .   S
    Zr13   O50       2.84755  1_655   S
    N51    O52       1.36710      .   S
    Zr2    O52       2.68164      .   S
    N51    O53       1.34471      .   S
    Zr10   O53       2.63488      .   S
    N51    O54       1.51455      .   S
    Zr23   O54       2.90284      .   S
    N51    O55       1.50040      .   S
    Zr27   O55       2.86047      .   S
    N56    O57       1.50324      .   S
    Zr10   O57       2.84694  1_565   S
    N56    O58       1.51614      .   S
    Zr14   O58       2.86440  1_565   S
    N59    O60       1.51614      .   S
    Zr10   O60       2.86439  1_565   S
    N59    O61       1.50325      .   S
    Zr14   O61       2.84697  1_665   S
    N62    O63       1.50330      .   S
    Zr12   O63       2.84718  1_655   S
    N62    O64       1.51619      .   S
    Zr8    O64       2.86459      .   S
    N65    O66       1.50323      .   S
    Zr28   O66       2.84692  1_545   S
    N65    O67       1.51612      .   S
    Zr24   O67       2.86436  1_545   S
    N68    O69       1.34471      .   S
    Zr30   O69       2.63505  1_554   S
    N68    O70       1.36707      .   S
    Zr22   O70       2.68134  1_554   S
    N68    O71       1.50044      .   S
    Zr15   O71       2.86053      .   S
    N68    O72       1.51466      .   S
    Zr3    O72       2.90258      .   S
    N73    O74       1.34468      .   S
    Zr25   O74       2.63489      .   S
    N73    O75       1.50045      .   S
    Zr8    O75       2.86057      .   S
    N73    O76       1.51465      .   S
    Zr4    O76       2.90316  1_655   S
    N73    O77       1.36697      .   S
    Zr17   O77       2.68115      .   S
    N78    O79       1.50329      .   S
    Zr26   O79       2.84716  1_455   S
    N78    O80       1.51617      .   S
    Zr30   O80       2.86455      .   S
    N81    O82       1.50042      .   S
    Zr14   O82       2.86052      .   S
    N81    O83       1.51464      .   S
    Zr2    O83       2.90321      .   S
    N81    O84       1.34471      .   S
    Zr31   O84       2.63487      .   S
    N81    O85       1.36687      .   S
    Zr23   O85       2.68106      .   S
    N86    O87       1.50327      .   S
    Zr31   O87       2.84712      .   S
    N86    O88       1.51617      .   S
    Zr27   O88       2.86456      .   S
    N89    O90       1.51459      .   S
    Zr17   O90       2.90288  1_455   S
    N89    O91       1.36708      .   S
    Zr4    O91       2.68163      .   S
    N89    O92       1.50040      .   S
    Zr29   O92       2.86046      .   S
    N89    O93       1.34471      .   S
    Zr12   O93       2.63486      .   S
    N94    O95       1.36704      .   S
    Zr0    O95       2.68158      .   S
    N94    O96       1.51458      .   S
    Zr21   O96       2.90287      .   S
    N94    O97       1.34470      .   S
    Zr8    O97       2.63486      .   S
    N94    O98       1.50037      .   S
    Zr25   O98       2.86044      .   S
    N99    O100      1.50290      .   S
    Zr11   O100      2.84730  1_565   S
    N99    O101      1.51639      .   S
    Zr15   O101      2.86457  1_565   S
    N102   O103      1.51460      .   S
    Zr19   O103      2.90287  1_455   S
    N102   O104      1.36683      .   S
    Zr6    O104      2.68092      .   S
    N102   O105      1.50039      .   S
    Zr31   O105      2.86046      .   S
    N102   O106      1.34471      .   S
    Zr14   O106      2.63488      .   S
    N107   O108      1.34473      .   S
    Zr15   O108      2.63500  1_556   S
    N107   O109      1.51459      .   S
    Zr18   O109      2.90287  1_455   S
    N107   O110      1.50040      .   S
    Zr30   O110      2.86047      .   S
    N107   O111      1.36692      .   S
    Zr7    O111      2.68121  1_556   S
    N112   O113      1.51612      .   S
    Zr25   O113      2.86436  1_545   S
    N112   O114      1.50322      .   S
    Zr29   O114      2.84691  1_545   S
    N115   O116      1.50044      .   S
    Zr9    O116      2.86064      .   S
    N115   O117      1.51447      .   S
    Zr5    O117      2.90274  1_655   S
    N115   O118      1.34470      .   S
    Zr24   O118      2.63504  1_554   S
    N115   O119      1.36712      .   S
    Zr16   O119      2.68148  1_554   S
    N120   O121      1.34470      .   S
    Zr26   O121      2.63505  1_554   S
    N120   O122      1.36715      .   S
    Zr18   O122      2.68142  1_554   S
    N120   O123      1.51464      .   S
    Zr7    O123      2.90255  1_655   S
    N120   O124      1.50047      .   S
    Zr11   O124      2.86058      .   S
    N125   O126      1.50076      .   S
    Zr13   O126      2.86111      .   S
    N125   O127      1.51396      .   S
    Zr1    O127      2.90215      .   S
    N125   O128      1.34455      .   S
    Zr28   O128      2.63520  1_554   S
    N125   O129      1.36475      .   S
    Zr20   O129      2.68556  1_554   S
    N130   O131      1.51612      .   S
    Zr28   O131      2.86436  1_545   S
    N130   O132      1.50324      .   S
    Zr24   O132      2.84696  1_445   S
    N133   O134      1.36687      .   S
    Zr19   O134      2.68106      .   S
    N133   O135      1.34472      .   S
    Zr27   O135      2.63486      .   S
    N133   O136      1.51455      .   S
    Zr6    O136      2.90284  1_655   S
    N133   O137      1.50043      .   S
    Zr10   O137      2.86050      .   S
    N138   O139      1.51619      .   S
    Zr12   O139      2.86460      .   S
    N138   O140      1.50329      .   S
    Zr8    O140      2.84713      .   S
    N141   O142      1.50041      .   S
    Zr28   O142      2.86046      .   S
    N141   O143      1.34473      .   S
    Zr13   O143      2.63500  1_556   S
    N141   O144      1.51459      .   S
    Zr16   O144      2.90288  1_455   S
    N141   O145      1.36692      .   S
    Zr5    O145      2.68121  1_556   S
    N146   O147      1.36687      .   S
    Zr21   O147      2.68106      .   S
    N146   O148      1.50042      .   S
    Zr12   O148      2.86051      .   S
    N146   O149      1.34471      .   S
    Zr29   O149      2.63487      .   S
    N146   O150      1.51464      .   S
    Zr0    O150      2.90323      .   S
    N151   O152      1.50328      .   S
    Zr27   O152      2.84715  1_455   S
    N151   O153      1.51617      .   S
    Zr31   O153      2.86456      .   S
    N154   O155      1.51644      .   S
    Zr13   O155      2.86477      .   S
    N154   O156      1.50295      .   S
    Zr9    O156      2.84751      .   S
    N157   O158      1.50324      .   S
    Zr25   O158      2.84695  1_445   S
    N157   O159      1.51611      .   S
    Zr29   O159      2.86436  1_545   S
    Zr17   O160      2.38715      .   S
    N45    O160      1.16776      .   S
    Zr17   O161      2.42717      .   S
    N94    O161      1.16442      .   S
    Zr17   O162      2.61043      .   S
    N86    O162      1.25172      .   S
    Zr17   O163      2.63018  1_455   S
    N151   O163      1.27094      .   S
    Zr28   O164      2.40623      .   S
    N37    O164      1.15667      .   S
    Zr28   O165      2.32736  1_554   S
    N99    O165      1.12019      .   S
    Zr15   O166      2.40645  1_655   S
    N120   O166      1.15676      .   S
    Zr15   O167      2.32569  1_556   S
    N130   O167      1.12045      .   S
    Zr19   O168      2.61045      .   S
    N112   O168      1.25173      .   S
    Zr19   O169      2.63017  1_455   S
    N157   O169      1.27094      .   S
    Zr19   O170      2.42712      .   S
    N51    O170      1.16442      .   S
    Zr19   O171      2.38715      .   S
    N48    O171      1.16776      .   S
    Zr10   O172      2.32543      .   S
    N112   O172      1.12035      .   S
    Zr10   O173      2.40633      .   S
    N81    O173      1.15674      .   S
    Zr8    O174      2.40632      .   S
    N146   O174      1.15674      .   S
    Zr8    O175      2.32543      .   S
    N86    O175      1.12035      .   S
    N141   O176      1.16442      .   S
    Zr20   O176      2.42714      .   S
    N141   O177      1.15674      .   S
    Zr24   O177      2.40631  1_455   S
    Zr16   O178      2.42720      .   S
    N37    O178      1.16448      .   S
    Zr16   O179      2.61044      .   S
    N42    O179      1.25173      .   S
    Zr16   O180      2.63018  1_455   S
    N78    O180      1.27094      .   S
    Zr16   O181      2.38759      .   S
    N59    O181      1.16821      .   S
    Zr20   O182      2.63013      .   S
    N42    O182      1.27092      .   S
    Zr20   O183      2.61045      .   S
    N78    O183      1.25173      .   S
    Zr20   O184      2.38759      .   S
    N56    O184      1.16821      .   S
    N65    O185      1.12045      .   S
    Zr11   O185      2.32569  1_556   S
    N65    O186      1.25173      .   S
    Zr18   O186      2.61044      .   S
    N65    O187      1.27093      .   S
    Zr22   O187      2.63014      .   S
    N65    O188      1.16807      .   S
    Zr2    O188      2.38718      .   S
    N42    O189      1.12045      .   S
    Zr9    O189      2.32569  1_556   S
    N42    O190      1.16807      .   S
    Zr0    O190      2.38718      .   S
    N120   O191      1.16432      .   S
    Zr3    O191      2.42701      .   S
    N130   O192      1.27094      .   S
    Zr18   O192      2.63018  1_455   S
    N130   O193      1.25172      .   S
    Zr22   O193      2.61043      .   S
    N130   O194      1.16824      .   S
    Zr6    O194      2.38770      .   S
    Zr14   O195      2.32543      .   S
    N157   O195      1.12035      .   S
    Zr14   O196      2.40635  1_655   S
    N133   O196      1.15676      .   S
    Zr30   O197      2.32736  1_554   S
    N154   O197      1.12018      .   S
    Zr30   O198      2.40616      .   S
    N32    O198      1.15660      .   S
    N154   O199      1.25192      .   S
    Zr7    O199      2.61072      .   S
    N154   O200      1.27089      .   S
    Zr3    O200      2.63051      .   S
    N154   O201      1.16776      .   S
    Zr23   O201      2.38715      .   S
    N112   O202      1.16826      .   S
    Zr3    O202      2.38771      .   S
    N112   O203      1.27092      .   S
    Zr23   O203      2.63014      .   S
    Zr26   O204      2.40632  1_455   S
    N107   O204      1.15674      .   S
    Zr26   O205      2.32736  1_554   S
    N48    O205      1.12018      .   S
    Zr11   O206      2.40638      .   S
    N68    O206      1.15671      .   S
    N115   O207      1.15682      .   S
    Zr13   O207      2.40641  1_655   S
    N115   O208      1.16435      .   S
    Zr1    O208      2.42697      .   S
    Zr13   O209      2.32569  1_556   S
    N78    O209      1.12045      .   S
    Zr24   O210      2.32736  1_554   S
    N45    O210      1.12019      .   S
    Zr9    O211      2.40731      .   S
    N125   O211      1.15654      .   S
    N81    O212      1.16440      .   S
    Zr6    O212      2.42706      .   S
    N78    O213      1.16807      .   S
    Zr4    O213      2.38718      .   S
    N125   O214      1.16387      .   S
    Zr5    O214      2.42647      .   S
    Zr18   O215      2.42731      .   S
    N32    O215      1.16458      .   S
    Zr18   O216      2.38759      .   S
    N62    O216      1.16821      .   S
    N99    O217      1.16776      .   S
    Zr21   O217      2.38715      .   S
    N99    O218      1.27089      .   S
    Zr1    O218      2.63050      .   S
    N99    O219      1.25192      .   S
    Zr5    O219      2.61072      .   S
    N56    O220      1.12041      .   S
    Zr29   O220      2.32559      .   S
    N56    O221      1.25167      .   S
    Zr4    O221      2.61023      .   S
    N56    O222      1.27090      .   S
    Zr0    O222      2.63001      .   S
    N102   O223      1.15673      .   S
    Zr27   O223      2.40629  1_455   S
    N102   O224      1.16443      .   S
    Zr23   O224      2.42713      .   S
    N45    O225      1.25192      .   S
    Zr1    O225      2.61073      .   S
    N45    O226      1.27091      .   S
    Zr5    O226      2.63055  1_655   S
    N157   O227      1.16826      .   S
    Zr7    O227      2.38771      .   S
    N157   O228      1.25172      .   S
    Zr23   O228      2.61044      .   S
    N107   O229      1.16442      .   S
    Zr22   O229      2.42714      .   S
    N138   O230      1.16821      .   S
    Zr22   O230      2.38759      .   S
    N138   O231      1.27090      .   S
    Zr2    O231      2.63000      .   S
    N138   O232      1.25174      .   S
    Zr6    O232      2.61049      .   S
    N138   O233      1.12041      .   S
    Zr31   O233      2.32559      .   S
    N94    O234      1.15670      .   S
    Zr29   O234      2.40626      .   S
    N146   O235      1.16452      .   S
    Zr4    O235      2.42744      .   S
    N86    O236      1.27092      .   S
    Zr21   O236      2.63012      .   S
    N86    O237      1.16826      .   S
    Zr1    O237      2.38771      .   S
    N133   O238      1.16453      .   S
    Zr2    O238      2.42744      .   S
    Zr25   O239      2.40631  1_455   S
    N89    O239      1.15674      .   S
    Zr25   O240      2.32559      .   S
    N59    O240      1.12041      .   S
    Zr21   O241      2.61044      .   S
    N151   O241      1.25172      .   S
    Zr21   O242      2.42715      .   S
    N89    O242      1.16442      .   S
    Zr12   O243      2.32543      .   S
    N151   O243      1.12035      .   S
    Zr12   O244      2.40639  1_655   S
    N73    O244      1.15679      .   S
    Zr7    O245      2.42705      .   S
    N68    O245      1.16436      .   S
    Zr7    O246      2.63056  1_655   S
    N48    O246      1.27091      .   S
    N151   O247      1.16826      .   S
    Zr5    O247      2.38771      .   S
    Zr4    O248      2.63005  1_655   S
    N59    O248      1.27092      .   S
    Zr3    O249      2.61072      .   S
    N48    O249      1.25192      .   S
    Zr2    O250      2.61023      .   S
    N62    O250      1.25167      .   S
    Zr0    O251      2.42739      .   S
    N73    O251      1.16447      .   S
    Zr0    O252      2.61022      .   S
    N59    O252      1.25166      .   S
    Zr6    O253      2.63022  1_655   S
    N62    O253      1.27095      .   S
    Zr27   O254      2.32559      .   S
    N62    O254      1.12041      .   S
    Zr31   O255      2.40627      .   S
    N51    O255      1.15672      .   S
