# CIF file generated by openbabel 2.4.90, see http://openbabel.sf.net
data_I
_chemical_name_common ''
_cell_length_a 17.383
_cell_length_b 18.645
_cell_length_c 18.184
_cell_angle_alpha 90.398
_cell_angle_beta 90.035
_cell_angle_gamma 90.007
_space_group_name_H-M_alt 'P 1'
_space_group_name_Hall 'P 1'
loop_
    _symmetry_equiv_pos_as_xyz
    x,y,z
loop_
    _atom_site_label
    _atom_site_type_symbol
    _atom_site_fract_x
    _atom_site_fract_y
    _atom_site_fract_z
    _atom_site_occupancy
    Zn0     Zn   0.70015   0.18095   0.38453   1.000
    Zn1     Zn   0.82643   0.68088   0.88468   1.000
    Zn2     Zn   0.70004   0.17824   0.55958   1.000
    Zn3     Zn   0.69357   0.59391   0.97491   1.000
    Zn4     Zn   0.69320   0.76480   0.97196   1.000
    Zn5     Zn   0.83318   0.09417   0.47517   1.000
    Zn6     Zn   0.83348   0.26502   0.47172   1.000
    Zn7     Zn   0.17365   0.31846   0.11562   1.000
    Zn8     Zn   0.30008   0.82001   0.44034   1.000
    Zn9     Zn   0.17328   0.32163   0.94024   1.000
    Zn10    Zn   0.29996   0.81874   0.61560   1.000
    Zn11    Zn   0.30647   0.40427   0.02509   1.000
    Zn12    Zn   0.30686   0.23433   0.02815   1.000
    Zn13    Zn   0.16683   0.90392   0.52500   1.000
    Zn14    Zn   0.16645   0.73419   0.52832   1.000
    Zn15    Zn   0.82659   0.67810   0.05978   1.000
