# CIF file generated by openbabel 2.4.90, see http://openbabel.sf.net
data_I
_chemical_name_common ''
_cell_length_a 17.383
_cell_length_b 18.645
_cell_length_c 18.184
_cell_angle_alpha 90.398
_cell_angle_beta 90.035
_cell_angle_gamma 90.007
_space_group_name_H-M_alt 'P 1'
_space_group_name_Hall 'P 1'
loop_
    _symmetry_equiv_pos_as_xyz
    x,y,z
loop_
    _atom_site_label
    _atom_site_type_symbol
    _atom_site_fract_x
    _atom_site_fract_y
    _atom_site_fract_z
    _atom_site_occupancy
    Zr0     Zr   0.82659   0.67810   0.05978   1.000
    Zr1     Zr   0.70015   0.18095   0.38453   1.000
    Zr2     Zr   0.82643   0.68088   0.88468   1.000
    Zr3     Zr   0.70004   0.17824   0.55958   1.000
    Zr4     Zr   0.69357   0.59391   0.97491   1.000
    Zr5     Zr   0.69320   0.76480   0.97196   1.000
    Zr6     Zr   0.83318   0.09417   0.47517   1.000
    Zr7     Zr   0.83348   0.26502   0.47172   1.000
    Zr8     Zr   0.17365   0.31846   0.11562   1.000
    Zr9     Zr   0.30008   0.82001   0.44034   1.000
    Zr10    Zr   0.17328   0.32163   0.94024   1.000
    Zr11    Zr   0.29996   0.81874   0.61560   1.000
    Zr12    Zr   0.30647   0.40427   0.02509   1.000
    Zr13    Zr   0.30686   0.23433   0.02815   1.000
    Zr14    Zr   0.16683   0.90392   0.52500   1.000
    Zr15    Zr   0.16645   0.73419   0.52832   1.000
    N16     N    0.76167   0.92992   0.72349   1.000
    O17     O    0.79242   0.99714   0.62109   1.000
    O18     O    0.73503   0.03290   0.65715   1.000
    O19     O    0.73258   0.86298   0.82655   1.000
    O20     O    0.78822   0.82618   0.78836   1.000
    N21     N    0.76289   0.92825   0.22397   1.000
    O22     O    0.79056   0.82514   0.15670   1.000
    O23     O    0.79312   0.99610   0.32763   1.000
    O24     O    0.73651   0.03278   0.28931   1.000
    O25     O    0.73216   0.86079   0.12056   1.000
    N26     N    0.76113   0.43192   0.22545   1.000
    O27     O    0.73223   0.49809   0.12201   1.000
    O28     O    0.73551   0.32759   0.28948   1.000
    O29     O    0.78890   0.53433   0.15874   1.000
    O30     O    0.79142   0.36417   0.32760   1.000
    N31     N    0.25991   0.67812   0.97344   1.000
    O32     O    0.44919   0.64185   0.97580   1.000
    O33     O    0.44918   0.71475   0.97029   1.000
    O34     O    0.07068   0.68113   0.93528   1.000
    O35     O    0.07063   0.67639   0.01010   1.000
    N36     N    0.23781   0.06817   0.27611   1.000
    O37     O    0.20723   0.00078   0.37865   1.000
    O38     O    0.26473   0.96523   0.34252   1.000
    O39     O    0.21135   0.17229   0.21145   1.000
    O40     O    0.26721   0.13564   0.17332   1.000
    N41     N    0.26634   0.17774   0.47363   1.000
    O42     O    0.45567   0.17948   0.43523   1.000
    O43     O    0.45572   0.17716   0.51027   1.000
    O44     O    0.07721   0.14204   0.47671   1.000
    O45     O    0.07722   0.21466   0.46957   1.000
    N46     N    0.23861   0.56830   0.77553   1.000
    O47     O    0.26775   0.50153   0.87872   1.000
    O48     O    0.20843   0.63567   0.67298   1.000
    O49     O    0.21082   0.46588   0.84208   1.000
    O50     O    0.26433   0.67243   0.71115   1.000
    N51     N    0.73357   0.82121   0.52635   1.000
    O52     O    0.92263   0.78409   0.53037   1.000
    O53     O    0.54426   0.82187   0.48973   1.000
    O54     O    0.92273   0.85654   0.52377   1.000
    O55     O    0.54432   0.81925   0.56477   1.000
    N56     N    0.76689   0.42652   0.72552   1.000
    O57     O    0.73842   0.32418   0.65745   1.000
    O58     O    0.79681   0.35995   0.62137   1.000
    O59     O    0.79247   0.53121   0.79096   1.000
    O60     O    0.73529   0.49467   0.82855   1.000
    N61     N    0.74013   0.32169   0.02690   1.000
    O62     O    0.55083   0.35720   0.02438   1.000
    O63     O    0.92932   0.32336   0.99003   1.000
    O64     O    0.92937   0.31931   0.06502   1.000
    O65     O    0.55093   0.28453   0.02990   1.000
    N66     N    0.23450   0.57144   0.27543   1.000
    O67     O    0.20894   0.46683   0.21032   1.000
    O68     O    0.20390   0.63875   0.37903   1.000
    O69     O    0.26554   0.50325   0.17208   1.000
    O70     O    0.26255   0.67399   0.34299   1.000
    N71     N    0.23716   0.07159   0.77566   1.000
    O72     O    0.26359   0.96702   0.71048   1.000
    O73     O    0.20944   0.17470   0.84304   1.000
    O74     O    0.26787   0.13887   0.87920   1.000
    O75     O    0.20692   0.00322   0.67212   1.000
    N76     N    0.23356   0.81903   0.52792   1.000
    O77     O    0.21688   0.84025   0.52719   1.000
    O78     O    0.21678   0.79782   0.52802   1.000
    O79     O    0.25019   0.81928   0.50602   1.000
    O80     O    0.25016   0.81896   0.54984   1.000
    N81     N    0.76674   0.17959   0.47214   1.000
    O82     O    0.78335   0.15824   0.47290   1.000
    O83     O    0.75007   0.17926   0.49400   1.000
    O84     O    0.75009   0.17993   0.45024   1.000
    O85     O    0.78343   0.20095   0.47203   1.000
    N86     N    0.75979   0.67927   0.97226   1.000
    O87     O    0.77649   0.67898   0.99414   1.000
    O88     O    0.74323   0.65793   0.97292   1.000
    O89     O    0.77645   0.67967   0.95036   1.000
    O90     O    0.74314   0.70065   0.97218   1.000
    N91     N    0.23990   0.31930   0.02781   1.000
    O92     O    0.25654   0.34055   0.02713   1.000
    O93     O    0.25664   0.29806   0.02789   1.000
    O94     O    0.22334   0.31909   0.04976   1.000
    O95     O    0.22325   0.31989   0.00592   1.000
loop_
    _geom_bond_atom_site_label_1
    _geom_bond_atom_site_label_2
    _geom_bond_distance
    _geom_bond_site_symmetry_2
    _ccdc_geom_bond_type
    N16    O17       2.31461      .   S
    Zr6    O17       3.29911  1_545   S
    N16    O18       2.32113  1_565   S
    Zr3    O18       3.30572      .   S
    N16    O19       2.31493      .   S
    Zr5    O19       3.29843      .   S
    N16    O20       2.31890      .   S
    Zr2    O20       3.30346      .   S
    N21    O22       2.32204      .   S
    Zr0    O22       3.30881      .   S
    N21    O23       2.32290      .   S
    Zr6    O23       3.30982  1_545   S
    N21    O24       2.32156  1_565   S
    Zr1    O24       3.31127      .   S
    N21    O25       2.31700      .   S
    Zr5    O25       3.30054  1_556   S
    N26    O27       2.31153      .   S
    Zr4    O27       3.29590  1_556   S
    N26    O28       2.31734      .   S
    Zr1    O28       3.30259      .   S
    N26    O29       2.32008      .   S
    Zr0    O29       3.30477      .   S
    N26    O30       2.31418      .   S
    Zr7    O30       3.29917      .   S
    N31    O32       3.35943      .   S
    Zr4    O32       4.34117      .   S
    N31    O33       3.36068      .   S
    Zr5    O33       4.34328      .   S
    N31    O34       3.36191      .   S
    Zr2    O34       4.34380  1_655   S
    N31    O35       3.35778  1_556   S
    Zr0    O35       4.33781  1_655   S
    N36    O37       2.31766      .   S
    Zr14   O37       3.30242  1_565   S
    N36    O38       2.32216  1_545   S
    Zr9    O38       3.30745      .   S
    N36    O39       2.32252      .   S
    Zr8    O39       3.31034      .   S
    N36    O40       2.31748      .   S
    Zr13   O40       3.30136      .   S
    N41    O42       3.36497      .   S
    Zr1    O42       4.34930      .   S
    N41    O43       3.35823      .   S
    Zr3    O43       4.34014      .   S
    N41    O44       3.35481      .   S
    Zr6    O44       4.33492  1_655   S
    N41    O45       3.35974      .   S
    Zr7    O45       4.34007  1_655   S
    N46    O47       2.31484      .   S
    Zr12   O47       3.30008  1_554   S
    N46    O48       2.31564      .   S
    Zr15   O48       3.30021      .   S
    N46    O49       2.31882      .   S
    Zr10   O49       3.30354      .   S
    N46    O50       2.31771      .   S
    Zr11   O50       3.30324      .   S
    N51    O52       3.35947      .   S
    Zr15   O52       4.33950  1_455   S
    N51    O53       3.35709      .   S
    Zr9    O53       4.33821      .   S
    N51    O54       3.35381      .   S
    Zr14   O54       4.33403  1_455   S
    N51    O55       3.36385      .   S
    Zr11   O55       4.34762      .   S
    N56    O57       2.32047      .   S
    Zr3    O57       3.30857      .   S
    N56    O58       2.31669      .   S
    Zr7    O58       3.29831      .   S
    N56    O59       2.32167      .   S
    Zr2    O59       3.31258      .   S
    N56    O60       2.32263      .   S
    Zr4    O60       3.31159      .   S
    N61    O62       3.35701      .   S
    Zr12   O62       4.33756      .   S
    N61    O63       3.35695  1_554   S
    Zr10   O63       4.33689  1_455   S
    N61    O64       3.36174      .   S
    Zr8    O64       4.34440  1_455   S
    N61    O65       3.36163      .   S
    Zr13   O65       4.34455      .   S
    N66    O67       2.31745      .   S
    Zr8    O67       3.30554      .   S
    N66    O68       2.31852      .   S
    Zr15   O68       3.30078      .   S
    N66    O69       2.32537      .   S
    Zr12   O69       3.31519      .   S
    N66    O70       2.31711      .   S
    Zr9    O70       3.30194      .   S
    N71    O72       2.32073  1_545   S
    Zr11   O72       3.30990      .   S
    N71    O73       2.32322      .   S
    Zr10   O73       3.31038      .   S
    N71    O74       2.31719      .   S
    Zr13   O74       3.30055  1_554   S
    N71    O75       2.32626      .   S
    Zr14   O75       3.31647  1_565   S
    N76    O77       0.49087      .   S
    Zr14   O77       1.47260      .   S
    N76    O78       0.49134      .   S
    Zr15   O78       1.47403      .   S
    N76    O79       0.49219      .   S
    Zr9    O79       1.47658      .   S
    N76    O80       0.49195      .   S
    Zr11   O80       1.47584      .   S
    N81    O82       0.49213      .   S
    Zr6    O82       1.47638      .   S
    N81    O83       0.49220      .   S
    Zr3    O83       1.47659      .   S
    N81    O84       0.49224      .   S
    Zr1    O84       1.47672      .   S
    N81    O85       0.49261      .   S
    Zr7    O85       1.47784      .   S
    N86    O87       0.49243      .   S
    Zr0    O87       1.47730  1_554   S
    N86    O88       0.49126      .   S
    Zr4    O88       1.47378      .   S
    N86    O89       0.49257      .   S
    Zr2    O89       1.47771      .   S
    N86    O90       0.49267      .   S
    Zr5    O90       1.47802      .   S
    N91    O92       0.49066      .   S
    Zr12   O92       1.47198      .   S
    N91    O93       0.49151      .   S
    Zr13   O93       1.47452      .   S
    N91    O94       0.49236      .   S
    Zr8    O94       1.47707      .   S
    N91    O95       0.49228      .   S
    Zr10   O95       1.47684  1_556   S
