# CIF file generated by openbabel 2.4.90, see http://openbabel.sf.net
data_I
_chemical_name_common ''
_cell_length_a 13.592
_cell_length_b 22.212
_cell_length_c 22.222
_cell_angle_alpha 72.165
_cell_angle_beta 90.017
_cell_angle_gamma 89.997
_space_group_name_H-M_alt 'P 1'
_space_group_name_Hall 'P 1'
loop_
    _symmetry_equiv_pos_as_xyz
    x,y,z
loop_
    _atom_site_label
    _atom_site_type_symbol
    _atom_site_fract_x
    _atom_site_fract_y
    _atom_site_fract_z
    _atom_site_occupancy
    H0      H    0.31677   0.48618   0.06784   1.000
    H1      H    0.31659   0.48617   0.56788   1.000
    H2      H    0.31692   0.98614   0.06782   1.000
    H3      H    0.31661   0.98613   0.56789   1.000
    H4      H    0.81679   0.48618   0.06784   1.000
    H5      H    0.81661   0.48617   0.56788   1.000
    H6      H    0.81694   0.98614   0.06782   1.000
    H7      H    0.81662   0.98613   0.56789   1.000
    H8      H    0.20095   0.48656   0.10718   1.000
    H9      H    0.20083   0.48658   0.60720   1.000
    H10     H    0.20110   0.98679   0.10708   1.000
    H11     H    0.20087   0.98674   0.60727   1.000
    H12     H    0.70097   0.48656   0.10718   1.000
    H13     H    0.70085   0.48658   0.60728   1.000
    H14     H    0.70111   0.98679   0.10708   1.000
    H15     H    0.70089   0.98674   0.60727   1.000
    H16     H    0.20124   0.12645   0.21856   1.000
    H17     H    0.20108   0.12659   0.71851   1.000
    H18     H    0.20127   0.62639   0.21861   1.000
    H19     H    0.20114   0.62652   0.71854   1.000
    H20     H    0.70125   0.12645   0.21856   1.000
    H21     H    0.70110   0.12659   0.71851   1.000
    H22     H    0.70129   0.62639   0.21861   1.000
    H23     H    0.70116   0.62652   0.71854   1.000
    H24     H    0.13063   0.17576   0.15454   1.000
    H25     H    0.13054   0.17586   0.65443   1.000
    H26     H    0.13069   0.67573   0.15459   1.000
    H27     H    0.13060   0.67581   0.65447   1.000
    H28     H    0.63065   0.17576   0.15454   1.000
    H29     H    0.63056   0.17586   0.65443   1.000
    H30     H    0.63071   0.67573   0.15459   1.000
    H31     H    0.63062   0.67581   0.65447   1.000
    H32     H    0.30916   0.36794   0.12523   1.000
    H33     H    0.30887   0.36791   0.62545   1.000
    H34     H    0.30871   0.86793   0.12537   1.000
    H35     H    0.30841   0.86788   0.62568   1.000
    H36     H    0.80918   0.36794   0.12523   1.000
    H37     H    0.80889   0.36791   0.62545   1.000
    H38     H    0.80873   0.86793   0.12537   1.000
    H39     H    0.80842   0.86788   0.62569   1.000
    H40     H    0.27848   0.08218   0.13994   1.000
    H41     H    0.27839   0.08221   0.63998   1.000
    H42     H    0.27850   0.58214   0.13996   1.000
    H43     H    0.27842   0.58217   0.63998   1.000
    H44     H    0.77850   0.08218   0.13994   1.000
    H45     H    0.77841   0.08221   0.63998   1.000
    H46     H    0.77852   0.58214   0.13996   1.000
    H47     H    0.77844   0.58217   0.63998   1.000
    H48     H    0.31668   0.01380   0.43208   1.000
    H49     H    0.31695   0.01381   0.93214   1.000
    H50     H    0.31660   0.51378   0.43205   1.000
    H51     H    0.31672   0.51377   0.93207   1.000
    H52     H    0.81670   0.01380   0.43208   1.000
    H53     H    0.81697   0.01381   0.93214   1.000
    H54     H    0.81662   0.51378   0.43205   1.000
    H55     H    0.81674   0.51377   0.93207   1.000
    H56     H    0.20095   0.01315   0.39200   1.000
    H57     H    0.20113   0.01318   0.89284   1.000
    H58     H    0.20087   0.51329   0.39260   1.000
    H59     H    0.20093   0.51343   0.89260   1.000
    H60     H    0.70097   0.01315   0.39270   1.000
    H61     H    0.70115   0.01318   0.89284   1.000
    H62     H    0.70089   0.51329   0.39262   1.000
    H63     H    0.70095   0.51343   0.89267   1.000
    H64     H    0.20098   0.37339   0.28142   1.000
    H65     H    0.20111   0.37353   0.78137   1.000
    H66     H    0.20095   0.87333   0.28148   1.000
    H67     H    0.20110   0.87347   0.78143   1.000
    H68     H    0.70100   0.37339   0.28142   1.000
    H69     H    0.70112   0.37353   0.78137   1.000
    H70     H    0.70097   0.87333   0.28148   1.000
    H71     H    0.70112   0.87347   0.78143   1.000
    H72     H    0.13058   0.32409   0.34553   1.000
    H73     H    0.13067   0.32417   0.84543   1.000
    H74     H    0.13052   0.82406   0.34560   1.000
    H75     H    0.13061   0.82417   0.84549   1.000
    H76     H    0.63060   0.32409   0.34553   1.000
    H77     H    0.63069   0.32417   0.84543   1.000
    H78     H    0.63054   0.82406   0.34500   1.000
    H79     H    0.63063   0.82417   0.84549   1.000
    H80     H    0.30823   0.13206   0.37440   1.000
    H81     H    0.30866   0.13203   0.87470   1.000
    H82     H    0.30852   0.63206   0.37448   1.000
    H83     H    0.30904   0.63204   0.87475   1.000
    H84     H    0.69100   0.87462   0.63199   1.000
    H85     H    0.22172   0.35999   0.41773   1.000
    H86     H    0.22174   0.36002   0.91771   1.000
    H87     H    0.22167   0.85999   0.41778   1.000
    H88     H    0.80825   0.13206   0.37440   1.000
    H89     H    0.80868   0.13203   0.87470   1.000
    H90     H    0.80854   0.63206   0.37448   1.000
    H91     H    0.80906   0.63204   0.87475   1.000
    H92     H    0.27835   0.41777   0.35996   1.000
    H93     H    0.27842   0.41781   0.85998   1.000
    H94     H    0.27835   0.91774   0.35999   1.000
    H95     H    0.27844   0.91778   0.86000   1.000
    H96     H    0.77837   0.41777   0.35996   1.000
    H97     H    0.77844   0.41781   0.85998   1.000
    H98     H    0.77837   0.91774   0.35999   1.000
    H99     H    0.77846   0.91778   0.86000   1.000
    H100    H    0.18327   0.06774   0.48610   1.000
    H101    H    0.18310   0.06771   0.98615   1.000
    H102    H    0.18341   0.56775   0.48617   1.000
    H103    H    0.18340   0.56775   0.98615   1.000
    H104    H    0.68328   0.06774   0.48610   1.000
    H105    H    0.68312   0.06771   0.98615   1.000
    H106    H    0.68343   0.56775   0.48617   1.000
    H107    H    0.68342   0.56775   0.98615   1.000
    H108    H    0.29907   0.10714   0.48660   1.000
    H109    H    0.29892   0.10702   0.98684   1.000
    H110    H    0.29917   0.60720   0.48663   1.000
    H111    H    0.29913   0.60717   0.98683   1.000
    H112    H    0.79909   0.10714   0.48660   1.000
    H113    H    0.79894   0.10702   0.98684   1.000
    H114    H    0.79919   0.60720   0.48663   1.000
    H115    H    0.79915   0.60717   0.98683   1.000
    C116    C    0.16828   0.36981   0.32751   1.000
    C117    C    0.16837   0.36990   0.82746   1.000
    C118    C    0.16824   0.86978   0.32756   1.000
    C119    C    0.16834   0.86988   0.82751   1.000
    C120    C    0.66829   0.36981   0.32751   1.000
    H121    H    0.29885   0.21860   0.12639   1.000
    H122    H    0.29882   0.21864   0.62635   1.000
    H123    H    0.29901   0.71853   0.12654   1.000
    H124    H    0.29894   0.71857   0.62646   1.000
    H125    H    0.79887   0.21860   0.12639   1.000
    H126    H    0.79884   0.21864   0.62635   1.000
    H127    H    0.79903   0.71852   0.12654   1.000
    H128    H    0.79896   0.71857   0.62646   1.000
    H129    H    0.36946   0.15457   0.17571   1.000
    H130    H    0.36940   0.15462   0.67570   1.000
    H131    H    0.36955   0.65444   0.17582   1.000
    H132    H    0.36948   0.65451   0.67577   1.000
    H133    H    0.86947   0.15457   0.17571   1.000
    H134    H    0.86942   0.15462   0.67570   1.000
    H135    H    0.86957   0.65444   0.17582   1.000
    H136    H    0.86950   0.65451   0.67577   1.000
    H137    H    0.19084   0.12524   0.36801   1.000
    H138    H    0.19130   0.12536   0.86801   1.000
    H139    H    0.19111   0.62543   0.36799   1.000
    H140    H    0.19164   0.62565   0.86798   1.000
    H141    H    0.69086   0.12524   0.36801   1.000
    H142    H    0.69132   0.12536   0.86801   1.000
    H143    H    0.69113   0.62543   0.36799   1.000
    H144    H    0.69166   0.62565   0.86798   1.000
    H145    H    0.22154   0.13990   0.08222   1.000
    H146    H    0.22153   0.13991   0.58220   1.000
    H147    H    0.22164   0.63992   0.08226   1.000
    H148    H    0.22160   0.63991   0.58223   1.000
    H149    H    0.72155   0.13990   0.08222   1.000
    H150    H    0.72155   0.13991   0.58220   1.000
    H151    H    0.72166   0.63992   0.08226   1.000
    H152    H    0.72162   0.63991   0.58223   1.000
    H153    H    0.18345   0.43214   0.01379   1.000
    H154    H    0.18354   0.43211   0.51379   1.000
    H155    H    0.18321   0.93217   0.01380   1.000
    H156    H    0.18350   0.93210   0.51378   1.000
    H157    H    0.68347   0.43214   0.01379   1.000
    H158    H    0.68356   0.43211   0.51379   1.000
    H159    H    0.68323   0.93217   0.01380   1.000
    H160    H    0.68352   0.93210   0.51378   1.000
    H161    H    0.29916   0.39270   0.01317   1.000
    H162    H    0.29925   0.39262   0.51335   1.000
    H163    H    0.29900   0.89281   0.01323   1.000
    H164    H    0.29925   0.89262   0.51350   1.000
    H165    H    0.79917   0.39270   0.01317   1.000
    H166    H    0.79927   0.39262   0.51330   1.000
    H167    H    0.79902   0.89281   0.01323   1.000
    H168    H    0.79928   0.89261   0.51351   1.000
    H169    H    0.29906   0.28139   0.37343   1.000
    H170    H    0.29910   0.28145   0.87337   1.000
    H171    H    0.29896   0.78134   0.37355   1.000
    H172    H    0.29896   0.78138   0.87353   1.000
    H173    H    0.79908   0.28139   0.37343   1.000
    H174    H    0.79912   0.28145   0.87337   1.000
    H175    H    0.79898   0.78134   0.37355   1.000
    H176    H    0.79898   0.78138   0.87353   1.000
    H177    H    0.36947   0.34550   0.32413   1.000
    H178    H    0.36954   0.34557   0.82411   1.000
    H179    H    0.36940   0.84540   0.32420   1.000
    H180    H    0.36946   0.84544   0.82420   1.000
    H181    H    0.86949   0.34550   0.32413   1.000
    H182    H    0.86956   0.34557   0.82411   1.000
    H183    H    0.86942   0.84541   0.32420   1.000
    H184    H    0.86948   0.84544   0.82420   1.000
    H185    H    0.19176   0.37432   0.13198   1.000
    H186    H    0.19145   0.37439   0.63200   1.000
    H187    H    0.19134   0.87460   0.13197   1.000
    H188    H    0.19099   0.87462   0.63199   1.000
    H189    H    0.69178   0.37432   0.13198   1.000
    H190    H    0.69147   0.37439   0.63200   1.000
    H191    H    0.69137   0.87460   0.13197   1.000
    H192    H    0.22166   0.86003   0.91776   1.000
    H193    H    0.72174   0.35999   0.41773   1.000
    H194    H    0.72176   0.36002   0.91771   1.000
    H195    H    0.72169   0.85999   0.41778   1.000
    H196    H    0.72168   0.86003   0.91776   1.000
    C197    C    0.27032   0.46085   0.10796   1.000
    C198    C    0.27018   0.46086   0.60802   1.000
    C199    C    0.27035   0.96094   0.10792   1.000
    C200    C    0.27013   0.96091   0.60803   1.000
    C201    C    0.77034   0.46085   0.10796   1.000
    C202    C    0.77020   0.46086   0.60802   1.000
    C203    C    0.77037   0.96094   0.10792   1.000
    C204    C    0.77014   0.96091   0.60803   1.000
    C205    C    0.16840   0.13005   0.17249   1.000
    C206    C    0.16830   0.13014   0.67244   1.000
    C207    C    0.16845   0.63002   0.17253   1.000
    C208    C    0.16835   0.63010   0.67247   1.000
    C209    C    0.66842   0.13005   0.17249   1.000
    C210    C    0.66831   0.13014   0.67244   1.000
    C211    C    0.66847   0.63002   0.17253   1.000
    C212    C    0.66837   0.63010   0.67247   1.000
    C213    C    0.27014   0.03903   0.39195   1.000
    C214    C    0.27036   0.03904   0.89204   1.000
    C215    C    0.27013   0.53909   0.39191   1.000
    C216    C    0.27027   0.53915   0.89195   1.000
    C217    C    0.77016   0.03903   0.39195   1.000
    C218    C    0.77038   0.03904   0.89204   1.000
    C219    C    0.77015   0.53909   0.39191   1.000
    C220    C    0.77029   0.53915   0.89195   1.000
    C221    C    0.66838   0.36990   0.82740   1.000
    C222    C    0.66826   0.86978   0.32756   1.000
    C223    C    0.66836   0.86988   0.82751   1.000
    C224    C    0.22969   0.10790   0.46091   1.000
    C225    C    0.22966   0.10786   0.96100   1.000
    C226    C    0.22981   0.60794   0.46092   1.000
    C227    C    0.22988   0.60794   0.96100   1.000
    C228    C    0.72971   0.10790   0.46091   1.000
    C229    C    0.72968   0.10786   0.96100   1.000
    C230    C    0.72983   0.60794   0.46092   1.000
    C231    C    0.72990   0.60794   0.96100   1.000
    C232    C    0.33166   0.17250   0.13002   1.000
    C233    C    0.33163   0.17253   0.63001   1.000
    C234    C    0.33178   0.67243   0.13013   1.000
    C235    C    0.33171   0.67247   0.63007   1.000
    C236    C    0.83168   0.17250   0.13002   1.000
    C237    C    0.83164   0.17253   0.63001   1.000
    C238    C    0.83180   0.67243   0.13013   1.000
    C239    C    0.83173   0.67247   0.63007   1.000
    C240    C    0.40424   0.67993   0.07587   1.000
    C241    C    0.22993   0.39197   0.03900   1.000
    C242    C    0.22995   0.39193   0.53908   1.000
    C243    C    0.22974   0.89203   0.03903   1.000
    C244    C    0.22987   0.89192   0.53915   1.000
    C245    C    0.72995   0.39197   0.03900   1.000
    C246    C    0.72997   0.39192   0.53908   1.000
    C247    C    0.72976   0.89203   0.03903   1.000
    C248    C    0.72989   0.89192   0.53915   1.000
    C249    C    0.67544   0.83011   0.04549   1.000
    C250    C    0.33176   0.32751   0.36980   1.000
    C251    C    0.33181   0.32756   0.86980   1.000
    C252    C    0.33169   0.82745   0.36991   1.000
    C253    C    0.33172   0.82749   0.86990   1.000
    C254    C    0.83178   0.32751   0.36982   1.000
    C255    C    0.83183   0.32756   0.86980   1.000
    C256    C    0.83171   0.82746   0.36990   1.000
    C257    C    0.83174   0.82749   0.86991   1.000
    N258    N    0.25033   0.39617   0.10365   1.000
    N259    N    0.25013   0.39617   0.60374   1.000
    N260    N    0.25004   0.89627   0.10368   1.000
    N261    N    0.24983   0.89623   0.60381   1.000
    N262    N    0.75035   0.39617   0.10365   1.000
    N263    N    0.75015   0.39617   0.60374   1.000
    N264    N    0.75006   0.89627   0.10360   1.000
    N265    N    0.74985   0.89623   0.60381   1.000
    N266    N    0.24970   0.10367   0.39623   1.000
    N267    N    0.24999   0.10368   0.89634   1.000
    N268    N    0.24988   0.60374   0.39623   1.000
    N269    N    0.25022   0.60380   0.89632   1.000
    N270    N    0.74972   0.10367   0.39623   1.000
    N271    N    0.75001   0.10368   0.89634   1.000
    N272    N    0.74990   0.60374   0.39623   1.000
    N273    N    0.75025   0.60380   0.89632   1.000
    N274    N    0.25002   0.12816   0.12818   1.000
    N275    N    0.24996   0.12820   0.62818   1.000
    N276    N    0.25009   0.62814   0.12823   1.000
    N277    N    0.25002   0.62817   0.62820   1.000
    N278    N    0.75004   0.12816   0.12818   1.000
    N279    N    0.74998   0.12820   0.62818   1.000
    N280    N    0.75010   0.62814   0.12823   1.000
    N281    N    0.75004   0.62817   0.62820   1.000
    N282    N    0.25002   0.37176   0.37174   1.000
    N283    N    0.25007   0.37181   0.87170   1.000
    N284    N    0.24998   0.87174   0.37179   1.000
    N285    N    0.25003   0.87179   0.87179   1.000
    N286    N    0.75004   0.37176   0.37174   1.000
    N287    N    0.75009   0.37181   0.87170   1.000
    N288    N    0.75000   0.87174   0.37179   1.000
    N289    N    0.75005   0.87179   0.87179   1.000
    O290    O    0.47394   0.71907   0.07691   1.000
    O291    O    0.39166   0.65092   0.03654   1.000
    O292    O    0.65077   0.82236   0.99240   1.000
    O293    O    0.65875   0.79413   0.09961   1.000
loop_
    _geom_bond_atom_site_label_1
    _geom_bond_atom_site_label_2
    _geom_bond_distance
    _geom_bond_site_symmetry_2
    _ccdc_geom_bond_type
    H161   C241      1.09979      .   S
    H165   C245      1.09980      .   S
    H163   C243      1.09977      .   S
    H167   C247      1.09976      .   S
    H157   C245      1.09675      .   S
    H153   C241      1.09677      .   S
    H155   C243      1.09678      .   S
    H159   C247      1.09678      .   S
    O291   C240      1.24624      .   S
    C241   N258      1.49382      .   S
    C245   N262      1.49382      .   S
    C243   N260      1.49389      .   S
    C247   C249      1.52851      .   S
    C247   N264      1.49215      .   S
    C249   O293      1.24423      .   S
    C249   O292      1.28764  1_554   S
    H6     C203      1.09675      .   S
    H2     C199      1.09675      .   S
    H4     C201      1.09681      .   S
    H0     C197      1.09681      .   S
    C240   O290      1.29092      .   S
    C240   C234      1.52616      .   S
    H149   N278      1.04765      .   S
    H145   N274      1.04765      .   S
    H147   N276      1.04763      .   S
    H151   N280      1.04764      .   S
    N264   C203      1.49440      .   S
    N264   H38       1.03900      .   S
    N264   H191      1.03928      .   S
    N262   C201      1.49383      .   S
    N262   H36       1.03841      .   S
    N262   H189      1.03861      .   S
    N258   C197      1.49381      .   S
    N258   H32       1.03841      .   S
    N258   H185      1.03861      .   S
    N260   C199      1.49376      .   S
    N260   H34       1.03848      .   S
    N260   H187      1.03847      .   S
    H10    C199      1.09969      .   S
    H14    C203      1.09970      .   S
    H12    C201      1.09970      .   S
    H8     C197      1.09970      .   S
    H125   C236      1.09686      .   S
    H121   C232      1.09688      .   S
    H123   C234      1.09688      .   S
    H127   C238      1.09686      .   S
    N274   C232      1.49261      .   S
    N274   H40       1.04765      .   S
    N274   C205      1.49263      .   S
    N278   C236      1.49261      .   S
    N278   H44       1.04765      .   S
    N278   C209      1.49262      .   S
    N276   C234      1.49266      .   S
    N276   H42       1.04764      .   S
    N276   C207      1.49260      .   S
    N280   C238      1.49266      .   S
    N280   H46       1.04764      .   S
    N280   C211      1.49259      .   S
    C232   H129      1.09787      .   S
    C236   H133      1.09787      .   S
    C234   H131      1.09785      .   S
    C238   H135      1.09786      .   S
    H24    C205      1.09788      .   S
    H28    C209      1.09790      .   S
    H26    C207      1.09788      .   S
    H30    C211      1.09788      .   S
    C205   H16       1.09694      .   S
    C209   H20       1.09694      .   S
    C207   H18       1.09697      .   S
    C211   H22       1.09696      .   S
    H68    C120      1.09692      .   S
    H64    C116      1.09692      .   S
    H70    C222      1.09690      .   S
    H66    C118      1.09691      .   S
    H177   C250      1.09739      .   S
    H181   C254      1.09776      .   S
    H183   C256      1.09782      .   S
    H179   C252      1.09801      .   S
    C120   H76       1.09788      .   S
    C120   N286      1.49260      .   S
    C116   H72       1.09788      .   S
    C116   N282      1.49261      .   S
    C222   H78       1.09687      .   S
    C222   N288      1.49259      .   S
    C118   H74       1.09788      .   S
    C118   N284      1.49260      .   S
    H92    N282      1.04755      .   S
    H96    N286      1.04755      .   S
    H94    N284      1.04754      .   S
    H98    N288      1.04754      .   S
    H143   N272      1.03849      .   S
    H139   N268      1.03850      .   S
    H141   N270      1.03846      .   S
    H137   N266      1.03846      .   S
    C250   N282      1.49275      .   S
    C250   H169      1.09676      .   S
    C254   N286      1.49265      .   S
    C254   H173      1.09685      .   S
    C256   N288      1.49265      .   S
    C256   H175      1.09686      .   S
    C252   N284      1.49260      .   S
    C252   H171      1.09690      .   S
    N282   H85       1.04753      .   S
    N286   H193      1.04753      .   S
    N288   H195      1.04760      .   S
    N284   H87       1.04761      .   S
    H80    N266      1.03866      .   S
    H88    N270      1.03867      .   S
    H82    N268      1.03857      .   S
    H90    N272      1.03857      .   S
    C219   H62       1.09972      .   S
    C219   N272      1.49380      .   S
    C219   H54       1.09680      .   S
    C215   H58       1.09977      .   S
    C215   N268      1.49380      .   S
    C215   H50       1.09679      .   S
    C213   H56       1.10207      .   S
    C213   N266      1.49384      .   S
    C213   H48       1.09676      .   S
    C217   H60       1.09970      .   S
    C217   N270      1.49384      .   S
    C217   H52       1.09676      .   S
    N272   C230      1.49401      .   S
    N270   C228      1.49389      .   S
    N268   C226      1.49401      .   S
    N266   C224      1.49388      .   S
    C224   H100      1.09621      .   S
    C224   H108      1.09971      .   S
    C228   H104      1.09621      .   S
    C228   H112      1.09971      .   S
    C226   H102      1.09667      .   S
    C226   H110      1.09971      .   S
    C230   H106      1.09669      .   S
    C230   H114      1.09970      .   S
    H166   C246      1.10028      .   S
    H162   C242      1.09972      .   S
    H164   C244      1.09980      .   S
    H168   C248      1.09972      .   S
    H160   C248      1.09672      .   S
    H156   C244      1.09673      .   S
    H158   C246      1.09673      .   S
    H154   C242      1.09671      .   S
    C246   N263      1.49385      .   S
    C242   N259      1.49384      .   S
    C244   N261      1.49378      .   S
    C248   N265      1.49379      .   S
    H5     C202      1.09675      .   S
    H1     C198      1.09676      .   S
    H7     C204      1.09674      .   S
    H3     C200      1.09675      .   S
    H146   N275      1.04785      .   S
    H150   N279      1.04785      .   S
    H152   N281      1.04755      .   S
    H148   N277      1.04755      .   S
    N259   C198      1.49379      .   S
    N259   H33       1.03853      .   S
    N259   H186      1.03863      .   S
    N263   C202      1.49379      .   S
    N263   H37       1.03854      .   S
    N263   H190      1.03862      .   S
    N261   C200      1.49380      .   S
    N261   H35       1.03866      .   S
    N261   H188      1.03849      .   S
    N265   C204      1.49380      .   S
    N265   H39       1.03871      .   S
    N265   H84       1.03852      .   S
    H9     C198      1.09945      .   S
    H11    C200      1.09973      .   S
    H15    C204      1.09973      .   S
    H13    C202      1.09972      .   S
    H122   C233      1.09684      .   S
    H126   C237      1.09684      .   S
    H124   C235      1.09690      .   S
    H128   C239      1.09689      .   S
    N279   C237      1.49263      .   S
    N279   H45       1.04760      .   S
    N279   C210      1.49265      .   S
    N275   C233      1.49263      .   S
    N275   H41       1.04760      .   S
    N275   C206      1.49265      .   S
    N277   C235      1.49266      .   S
    N277   H43       1.04760      .   S
    N277   C208      1.49274      .   S
    N281   C239      1.49266      .   S
    N281   H47       1.04760      .   S
    N281   C212      1.49274      .   S
    C233   H130      1.09776      .   S
    C237   H134      1.09776      .   S
    C235   H132      1.09798      .   S
    C239   H136      1.09798      .   S
    H29    C210      1.09789      .   S
    H25    C206      1.09790      .   S
    H31    C212      1.09788      .   S
    H27    C208      1.09789      .   S
    C206   H17       1.09687      .   S
    C210   H21       1.09687      .   S
    C208   H19       1.09678      .   S
    C212   H23       1.09678      .   S
    H65    C117      1.09692      .   S
    H69    C221      1.09570      .   S
    H67    C119      1.09699      .   S
    H71    C223      1.09699      .   S
    H178   C251      1.09792      .   S
    H182   C255      1.09792      .   S
    H184   C257      1.09825      .   S
    H180   C253      1.09806      .   S
    C221   H77       1.09798      .   S
    C221   N287      1.49308      .   S
    C117   H73       1.09786      .   S
    C117   N283      1.49219      .   S
    C119   H75       1.09788      .   S
    C119   N285      1.49256      .   S
    C223   H79       1.09786      .   S
    C223   N289      1.49256      .   S
    H93    N283      1.04760      .   S
    H97    N287      1.04762      .   S
    H95    N285      1.04756      .   S
    H99    N289      1.04756      .   S
    H144   N273      1.03860      .   S
    H140   N269      1.03860      .   S
    H142   N271      1.03848      .   S
    H138   N267      1.03848      .   S
    C255   N287      1.49249      .   S
    C255   H174      1.09688      .   S
    C251   N283      1.49248      .   S
    C251   H170      1.09688      .   S
    C253   N285      1.49264      .   S
    C253   H172      1.09681      .   S
    C257   N289      1.49258      .   S
    C257   H176      1.09686      .   S
    N287   H194      1.04809      .   S
    N283   H86       1.04810      .   S
    N289   H196      1.04751      .   S
    N285   H192      1.04751      .   S
    H81    N267      1.03848      .   S
    H89    N271      1.03847      .   S
    H91    N273      1.03845      .   S
    H83    N269      1.03845      .   S
    C220   H63       1.09973      .   S
    C220   N273      1.49376      .   S
    C220   H55       1.09673      .   S
    C216   H59       1.09993      .   S
    C216   N269      1.49379      .   S
    C216   H51       1.09673      .   S
    C218   H61       1.09971      .   S
    C218   N271      1.49379      .   S
    C218   H53       1.09676      .   S
    C214   H57       1.09971      .   S
    C214   N267      1.49377      .   S
    C214   H49       1.09676      .   S
    N273   C231      1.49398      .   S
    N269   C227      1.49398      .   S
    N267   C225      1.49379      .   S
    N271   C229      1.49378      .   S
    C225   H101      1.09677      .   S
    C225   H109      1.09976      .   S
    C227   H103      1.09671      .   S
    C227   H111      1.09973      .   S
    C229   H105      1.09676      .   S
    C229   H113      1.09977      .   S
    C231   H107      1.09672      .   S
    C231   H115      1.09972      .   S
