# CIF file generated by openbabel 2.4.90, see http://openbabel.sf.net
data_I
_chemical_name_common ''
_cell_length_a 13.592
_cell_length_b 22.212
_cell_length_c 22.222
_cell_angle_alpha 72.165
_cell_angle_beta 90.017
_cell_angle_gamma 89.997
_space_group_name_H-M_alt 'P 1'
_space_group_name_Hall 'P 1'
loop_
    _symmetry_equiv_pos_as_xyz
    x,y,z
loop_
    _atom_site_label
    _atom_site_type_symbol
    _atom_site_fract_x
    _atom_site_fract_y
    _atom_site_fract_z
    _atom_site_occupancy
    C0      C    0.44591   0.99997   0.25000   1.000
    C1      C    0.44591   0.00003   0.75000   1.000
    C2      C    0.44591   0.49997   0.24999   1.000
    C3      C    0.44591   0.50001   0.74999   1.000
    C4      C    0.94593   0.99997   0.25000   1.000
    C5      C    0.94593   0.00003   0.75000   1.000
    C6      C    0.94592   0.49997   0.24999   1.000
    C7      C    0.94593   0.50001   0.74999   1.000
    C8      C    0.05411   0.24999   0.99996   1.000
    C9      C    0.05412   0.24998   0.49997   1.000
    C10     C    0.05413   0.74996   0.50001   1.000
    C11     C    0.05413   0.74996   0.00000   1.000
    C12     C    0.55413   0.24999   0.99996   1.000
    C13     C    0.55414   0.24998   0.49997   1.000
    C14     C    0.55415   0.74996   0.50001   1.000
    C15     C    0.55414   0.74997   0.90000   1.000
    C16     C    0.31677   0.48618   0.06784   1.000
    C17     C    0.31659   0.48617   0.56788   1.000
    C18     C    0.31692   0.98614   0.06782   1.000
    C19     C    0.31661   0.98613   0.56789   1.000
    C20     C    0.81679   0.48618   0.06784   1.000
    C21     C    0.81661   0.48617   0.56788   1.000
    C22     C    0.81694   0.98614   0.06782   1.000
    C23     C    0.81662   0.98613   0.56789   1.000
    C24     C    0.20095   0.48656   0.10718   1.000
    C25     C    0.20083   0.48658   0.60720   1.000
    C26     C    0.20110   0.98679   0.10708   1.000
    C27     C    0.20087   0.98674   0.60727   1.000
    C28     C    0.70097   0.48656   0.10718   1.000
    C29     C    0.70085   0.48658   0.60728   1.000
    C30     C    0.70111   0.98679   0.10708   1.000
    C31     C    0.70089   0.98674   0.60727   1.000
    C32     C    0.20124   0.12645   0.21856   1.000
    C33     C    0.20108   0.12659   0.71851   1.000
    C34     C    0.20127   0.62639   0.21861   1.000
    C35     C    0.20114   0.62652   0.71854   1.000
    C36     C    0.70125   0.12645   0.21856   1.000
    C37     C    0.70110   0.12659   0.71851   1.000
    C38     C    0.70129   0.62639   0.21861   1.000
    C39     C    0.70116   0.62652   0.71854   1.000
    C40     C    0.13063   0.17576   0.15454   1.000
    C41     C    0.13054   0.17586   0.65443   1.000
    C42     C    0.13069   0.67573   0.15459   1.000
    C43     C    0.13060   0.67581   0.65447   1.000
    C44     C    0.63065   0.17576   0.15454   1.000
    C45     C    0.63056   0.17586   0.65443   1.000
    C46     C    0.63071   0.67573   0.15459   1.000
    C47     C    0.63062   0.67581   0.65447   1.000
    C48     C    0.30916   0.36794   0.12523   1.000
    C49     C    0.30887   0.36791   0.62545   1.000
    C50     C    0.30871   0.86793   0.12537   1.000
    C51     C    0.30841   0.86788   0.62568   1.000
    C52     C    0.80918   0.36794   0.12523   1.000
    C53     C    0.80889   0.36791   0.62545   1.000
    C54     C    0.80873   0.86793   0.12537   1.000
    C55     C    0.80842   0.86788   0.62569   1.000
    C56     C    0.27848   0.08218   0.13994   1.000
    C57     C    0.27839   0.08221   0.63998   1.000
    C58     C    0.27850   0.58214   0.13996   1.000
    C59     C    0.27842   0.58217   0.63998   1.000
    C60     C    0.77850   0.08218   0.13994   1.000
    C61     C    0.77841   0.08221   0.63998   1.000
    C62     C    0.77852   0.58214   0.13996   1.000
    C63     C    0.77844   0.58217   0.63998   1.000
    C64     C    0.31668   0.01380   0.43208   1.000
    C65     C    0.31695   0.01381   0.93214   1.000
    C66     C    0.31660   0.51378   0.43205   1.000
    C67     C    0.31672   0.51377   0.93207   1.000
    C68     C    0.81670   0.01380   0.43208   1.000
    C69     C    0.81697   0.01381   0.93214   1.000
    C70     C    0.81662   0.51378   0.43205   1.000
    C71     C    0.81674   0.51377   0.93207   1.000
    C72     C    0.20095   0.01315   0.39200   1.000
    C73     C    0.20113   0.01318   0.89284   1.000
    C74     C    0.20087   0.51329   0.39260   1.000
    C75     C    0.20093   0.51343   0.89260   1.000
    C76     C    0.70097   0.01315   0.39270   1.000
    C77     C    0.70115   0.01318   0.89284   1.000
    C78     C    0.70089   0.51329   0.39262   1.000
    C79     C    0.70095   0.51343   0.89267   1.000
    C80     C    0.20098   0.37339   0.28142   1.000
    C81     C    0.20111   0.37353   0.78137   1.000
    C82     C    0.20095   0.87333   0.28148   1.000
    C83     C    0.20110   0.87347   0.78143   1.000
    C84     C    0.70100   0.37339   0.28142   1.000
    C85     C    0.70112   0.37353   0.78137   1.000
    C86     C    0.70097   0.87333   0.28148   1.000
    C87     C    0.70112   0.87347   0.78143   1.000
    C88     C    0.13058   0.32409   0.34553   1.000
    C89     C    0.13067   0.32417   0.84543   1.000
    C90     C    0.13052   0.82406   0.34560   1.000
    C91     C    0.13061   0.82417   0.84549   1.000
    C92     C    0.63060   0.32409   0.34553   1.000
    C93     C    0.63069   0.32417   0.84543   1.000
    C94     C    0.63054   0.82406   0.34500   1.000
    C95     C    0.63063   0.82417   0.84549   1.000
    C96     C    0.30823   0.13206   0.37440   1.000
    C97     C    0.30866   0.13203   0.87470   1.000
    C98     C    0.30852   0.63206   0.37448   1.000
    C99     C    0.30904   0.63204   0.87475   1.000
    C100    C    0.80825   0.13206   0.37440   1.000
    C101    C    0.80868   0.13203   0.87470   1.000
    C102    C    0.80854   0.63206   0.37448   1.000
    C103    C    0.80906   0.63204   0.87475   1.000
    C104    C    0.27835   0.41777   0.35996   1.000
    C105    C    0.27842   0.41781   0.85998   1.000
    C106    C    0.27835   0.91774   0.35999   1.000
    C107    C    0.27844   0.91778   0.86000   1.000
    C108    C    0.77837   0.41777   0.35996   1.000
    C109    C    0.77844   0.41781   0.85998   1.000
    C110    C    0.77837   0.91774   0.35999   1.000
    C111    C    0.77846   0.91778   0.86000   1.000
    C112    C    0.18327   0.06774   0.48610   1.000
    C113    C    0.18310   0.06771   0.98615   1.000
    C114    C    0.18341   0.56775   0.48617   1.000
    C115    C    0.18340   0.56775   0.98615   1.000
    C116    C    0.68328   0.06774   0.48610   1.000
    C117    C    0.68312   0.06771   0.98615   1.000
    C118    C    0.68343   0.56775   0.48617   1.000
    C119    C    0.68342   0.56775   0.98615   1.000
    C120    C    0.29907   0.10714   0.48660   1.000
    C121    C    0.29892   0.10702   0.98684   1.000
    C122    C    0.29917   0.60720   0.48663   1.000
    C123    C    0.29913   0.60717   0.98683   1.000
    C124    C    0.79909   0.10714   0.48660   1.000
    C125    C    0.79894   0.10702   0.98684   1.000
    C126    C    0.79919   0.60720   0.48663   1.000
    C127    C    0.79915   0.60717   0.98683   1.000
    C128    C    0.29885   0.21860   0.12639   1.000
    C129    C    0.29882   0.21864   0.62635   1.000
    C130    C    0.29901   0.71853   0.12654   1.000
    C131    C    0.29894   0.71857   0.62646   1.000
    C132    C    0.79887   0.21860   0.12639   1.000
    C133    C    0.79884   0.21864   0.62635   1.000
    C134    C    0.79903   0.71852   0.12654   1.000
    C135    C    0.79896   0.71857   0.62646   1.000
    C136    C    0.36946   0.15457   0.17571   1.000
    C137    C    0.36940   0.15462   0.67570   1.000
    C138    C    0.36955   0.65444   0.17582   1.000
    C139    C    0.36948   0.65451   0.67577   1.000
    C140    C    0.86947   0.15457   0.17571   1.000
    C141    C    0.86942   0.15462   0.67570   1.000
    C142    C    0.86957   0.65444   0.17582   1.000
    C143    C    0.86950   0.65451   0.67577   1.000
    C144    C    0.19084   0.12524   0.36801   1.000
    C145    C    0.19130   0.12536   0.86801   1.000
    C146    C    0.19111   0.62543   0.36799   1.000
    C147    C    0.19164   0.62565   0.86798   1.000
    C148    C    0.69086   0.12524   0.36801   1.000
    C149    C    0.69132   0.12536   0.86801   1.000
    C150    C    0.69113   0.62543   0.36799   1.000
    C151    C    0.69166   0.62565   0.86798   1.000
    C152    C    0.22154   0.13990   0.08222   1.000
    C153    C    0.22153   0.13991   0.58220   1.000
    C154    C    0.22164   0.63992   0.08226   1.000
    C155    C    0.22160   0.63991   0.58223   1.000
    C156    C    0.72155   0.13990   0.08222   1.000
    C157    C    0.72155   0.13991   0.58220   1.000
    C158    C    0.72166   0.63992   0.08226   1.000
    C159    C    0.72162   0.63991   0.58223   1.000
    C160    C    0.18345   0.43214   0.01379   1.000
    C161    C    0.18354   0.43211   0.51379   1.000
    C162    C    0.18321   0.93217   0.01380   1.000
    C163    C    0.18350   0.93210   0.51378   1.000
    C164    C    0.68347   0.43214   0.01379   1.000
    C165    C    0.68356   0.43211   0.51379   1.000
    C166    C    0.68323   0.93217   0.01380   1.000
    C167    C    0.68352   0.93210   0.51378   1.000
    C168    C    0.29916   0.39270   0.01317   1.000
    C169    C    0.29925   0.39262   0.51335   1.000
    C170    C    0.29900   0.89281   0.01323   1.000
    C171    C    0.29925   0.89262   0.51350   1.000
    C172    C    0.79917   0.39270   0.01317   1.000
    C173    C    0.79927   0.39262   0.51330   1.000
    C174    C    0.79902   0.89281   0.01323   1.000
    C175    C    0.79928   0.89261   0.51351   1.000
    C176    C    0.29906   0.28139   0.37343   1.000
    C177    C    0.29910   0.28145   0.87337   1.000
    C178    C    0.29896   0.78134   0.37355   1.000
    C179    C    0.29896   0.78138   0.87353   1.000
    C180    C    0.79908   0.28139   0.37343   1.000
    C181    C    0.79912   0.28145   0.87337   1.000
    C182    C    0.79898   0.78134   0.37355   1.000
    C183    C    0.79898   0.78138   0.87353   1.000
    C184    C    0.36947   0.34550   0.32413   1.000
    C185    C    0.36954   0.34557   0.82411   1.000
    C186    C    0.36940   0.84540   0.32420   1.000
    C187    C    0.36946   0.84544   0.82420   1.000
    C188    C    0.86949   0.34550   0.32413   1.000
    C189    C    0.86956   0.34557   0.82411   1.000
    C190    C    0.86942   0.84541   0.32420   1.000
    C191    C    0.86948   0.84544   0.82420   1.000
    C192    C    0.19176   0.37432   0.13198   1.000
    C193    C    0.19145   0.37439   0.63200   1.000
    C194    C    0.19134   0.87460   0.13197   1.000
    C195    C    0.19099   0.87462   0.63199   1.000
    C196    C    0.69178   0.37432   0.13198   1.000
    C197    C    0.69147   0.37439   0.63200   1.000
    C198    C    0.69137   0.87460   0.13197   1.000
    C199    C    0.69100   0.87462   0.63199   1.000
    C200    C    0.22172   0.35999   0.41773   1.000
    C201    C    0.22174   0.36002   0.91771   1.000
    C202    C    0.22167   0.85999   0.41778   1.000
    C203    C    0.22166   0.86003   0.91776   1.000
    C204    C    0.72174   0.35999   0.41773   1.000
    C205    C    0.72176   0.36002   0.91771   1.000
    C206    C    0.72169   0.85999   0.41778   1.000
    C207    C    0.72168   0.86003   0.91776   1.000
    C208    C    0.27032   0.46085   0.10796   1.000
    C209    C    0.27018   0.46086   0.60802   1.000
    C210    C    0.27035   0.96094   0.10792   1.000
    C211    C    0.27013   0.96091   0.60803   1.000
    C212    C    0.77034   0.46085   0.10796   1.000
    C213    C    0.77020   0.46086   0.60802   1.000
    C214    C    0.77037   0.96094   0.10792   1.000
    C215    C    0.77014   0.96091   0.60803   1.000
    C216    C    0.32467   0.45441   0.16985   1.000
    C217    C    0.32463   0.45441   0.66988   1.000
    C218    C    0.32467   0.95445   0.16983   1.000
    C219    C    0.32460   0.95443   0.66989   1.000
    C220    C    0.82469   0.45441   0.16985   1.000
    C221    C    0.82465   0.45441   0.66988   1.000
    C222    C    0.82469   0.95445   0.16983   1.000
    C223    C    0.82462   0.95443   0.66989   1.000
    C224    C    0.16840   0.13005   0.17249   1.000
    C225    C    0.16830   0.13014   0.67244   1.000
    C226    C    0.16845   0.63002   0.17253   1.000
    C227    C    0.16835   0.63010   0.67247   1.000
    C228    C    0.66842   0.13005   0.17249   1.000
    C229    C    0.66831   0.13014   0.67244   1.000
    C230    C    0.66847   0.63002   0.17253   1.000
    C231    C    0.66837   0.63010   0.67247   1.000
    C232    C    0.09589   0.07579   0.17996   1.000
    C233    C    0.09579   0.07589   0.67993   1.000
    C234    C    0.09592   0.57577   0.17997   1.000
    C235    C    0.09583   0.57585   0.67994   1.000
    C236    C    0.59591   0.07579   0.17996   1.000
    C237    C    0.59580   0.07589   0.67993   1.000
    C238    C    0.59594   0.57577   0.17997   1.000
    C239    C    0.59585   0.57585   0.67994   1.000
    C240    C    0.27014   0.03903   0.39195   1.000
    C241    C    0.27036   0.03904   0.89204   1.000
    C242    C    0.27013   0.53909   0.39191   1.000
    C243    C    0.27027   0.53915   0.89195   1.000
    C244    C    0.77016   0.03903   0.39195   1.000
    C245    C    0.77038   0.03904   0.89204   1.000
    C246    C    0.77015   0.53909   0.39191   1.000
    C247    C    0.77029   0.53915   0.89195   1.000
    C248    C    0.32457   0.04557   0.33009   1.000
    C249    C    0.32466   0.04556   0.83014   1.000
    C250    C    0.32458   0.54561   0.33006   1.000
    C251    C    0.32463   0.54563   0.83007   1.000
    C252    C    0.82459   0.04557   0.33009   1.000
    C253    C    0.82467   0.04556   0.83014   1.000
    C254    C    0.82459   0.54561   0.33006   1.000
    C255    C    0.82465   0.54563   0.83007   1.000
    C256    C    0.16828   0.36981   0.32751   1.000
    C257    C    0.16837   0.36990   0.82746   1.000
    C258    C    0.16824   0.86978   0.32756   1.000
    C259    C    0.16834   0.86988   0.82751   1.000
    C260    C    0.66829   0.36981   0.32751   1.000
    C261    C    0.66838   0.36990   0.82740   1.000
    C262    C    0.66826   0.86978   0.32756   1.000
    C263    C    0.66836   0.86988   0.82751   1.000
    C264    C    0.09573   0.42404   0.32008   1.000
    C265    C    0.09581   0.42412   0.82000   1.000
    C266    C    0.09573   0.92403   0.32009   1.000
    C267    C    0.09582   0.92413   0.82006   1.000
    C268    C    0.59575   0.42404   0.32008   1.000
    C269    C    0.59583   0.42412   0.82000   1.000
    C270    C    0.59574   0.92403   0.32009   1.000
    C271    C    0.59584   0.92413   0.82006   1.000
    C272    C    0.22969   0.10790   0.46091   1.000
    C273    C    0.22966   0.10786   0.96100   1.000
    C274    C    0.22981   0.60794   0.46092   1.000
    C275    C    0.22988   0.60794   0.96100   1.000
    C276    C    0.72971   0.10790   0.46091   1.000
    C277    C    0.72968   0.10786   0.96100   1.000
    C278    C    0.72983   0.60794   0.46092   1.000
    C279    C    0.72990   0.60794   0.96100   1.000
    C280    C    0.17534   0.16981   0.45450   1.000
    C281    C    0.17535   0.16978   0.95454   1.000
    C282    C    0.17538   0.66982   0.45450   1.000
    C283    C    0.17542   0.66981   0.95455   1.000
    C284    C    0.67536   0.16981   0.45450   1.000
    C285    C    0.67537   0.16979   0.95454   1.000
    C286    C    0.67540   0.66982   0.45450   1.000
    C287    C    0.67544   0.66981   0.95455   1.000
    C288    C    0.33166   0.17250   0.13002   1.000
    C289    C    0.33163   0.17253   0.63001   1.000
    C290    C    0.33178   0.67243   0.13013   1.000
    C291    C    0.33171   0.67247   0.63007   1.000
    C292    C    0.83168   0.17250   0.13002   1.000
    C293    C    0.83164   0.17253   0.63001   1.000
    C294    C    0.83180   0.67243   0.13013   1.000
    C295    C    0.83173   0.67247   0.63007   1.000
    C296    C    0.40412   0.17998   0.07577   1.000
    C297    C    0.40410   0.17998   0.57577   1.000
    C298    C    0.40424   0.67993   0.07587   1.000
    C299    C    0.40418   0.67994   0.57583   1.000
    C300    C    0.90414   0.17998   0.07577   1.000
    C301    C    0.90412   0.17998   0.57577   1.000
    C302    C    0.90425   0.67993   0.07587   1.000
    C303    C    0.90420   0.67994   0.57583   1.000
    C304    C    0.22993   0.39197   0.03900   1.000
    C305    C    0.22995   0.39193   0.53908   1.000
    C306    C    0.22974   0.89203   0.03903   1.000
    C307    C    0.22987   0.89192   0.53915   1.000
    C308    C    0.72995   0.39197   0.03900   1.000
    C309    C    0.72997   0.39192   0.53908   1.000
    C310    C    0.72976   0.89203   0.03903   1.000
    C311    C    0.72989   0.89192   0.53915   1.000
    C312    C    0.17548   0.33009   0.04547   1.000
    C313    C    0.17549   0.33006   0.54550   1.000
    C314    C    0.17542   0.83011   0.04549   1.000
    C315    C    0.17547   0.83005   0.54557   1.000
    C316    C    0.67550   0.33009   0.04547   1.000
    C317    C    0.67551   0.33006   0.54550   1.000
    C318    C    0.67544   0.83011   0.04549   1.000
    C319    C    0.67549   0.83005   0.54557   1.000
    C320    C    0.33176   0.32751   0.36980   1.000
    C321    C    0.33181   0.32756   0.86980   1.000
    C322    C    0.33169   0.82745   0.36991   1.000
    C323    C    0.33172   0.82749   0.86990   1.000
    C324    C    0.83178   0.32751   0.36982   1.000
    C325    C    0.83183   0.32756   0.86980   1.000
    C326    C    0.83171   0.82746   0.36990   1.000
    C327    C    0.83174   0.82749   0.86991   1.000
    C328    C    0.40428   0.32005   0.42406   1.000
    C329    C    0.40431   0.32006   0.92406   1.000
    C330    C    0.40423   0.82002   0.42413   1.000
    C331    C    0.40422   0.82002   0.92417   1.000
    C332    C    0.90430   0.32005   0.42406   1.000
    C333    C    0.90432   0.32006   0.92406   1.000
    C334    C    0.90425   0.82002   0.42413   1.000
    C335    C    0.90424   0.82002   0.92410   1.000
    C336    C    0.25033   0.39617   0.10365   1.000
    C337    C    0.25013   0.39617   0.60374   1.000
    C338    C    0.25004   0.89627   0.10368   1.000
    C339    C    0.24983   0.89623   0.60381   1.000
    C340    C    0.75035   0.39617   0.10365   1.000
    C341    C    0.75015   0.39617   0.60374   1.000
    C342    C    0.75006   0.89627   0.10360   1.000
    C343    C    0.74985   0.89623   0.60381   1.000
    C344    C    0.24970   0.10367   0.39623   1.000
    C345    C    0.24999   0.10368   0.89634   1.000
    C346    C    0.24988   0.60374   0.39623   1.000
    C347    C    0.25022   0.60380   0.89632   1.000
    C348    C    0.74972   0.10367   0.39623   1.000
    C349    C    0.75001   0.10368   0.89634   1.000
    C350    C    0.74990   0.60374   0.39623   1.000
    C351    C    0.75025   0.60380   0.89632   1.000
    C352    C    0.25002   0.12816   0.12818   1.000
    C353    C    0.24996   0.12820   0.62818   1.000
    C354    C    0.25009   0.62814   0.12823   1.000
    C355    C    0.25002   0.62817   0.62820   1.000
    C356    C    0.75004   0.12816   0.12818   1.000
    C357    C    0.74998   0.12820   0.62818   1.000
    C358    C    0.75010   0.62814   0.12823   1.000
    C359    C    0.75004   0.62817   0.62820   1.000
    C360    C    0.25002   0.37176   0.37174   1.000
    C361    C    0.25007   0.37181   0.87170   1.000
    C362    C    0.24998   0.87174   0.37179   1.000
    C363    C    0.25003   0.87179   0.87179   1.000
    C364    C    0.75004   0.37176   0.37174   1.000
    C365    C    0.75009   0.37181   0.87170   1.000
    C366    C    0.75000   0.87174   0.37179   1.000
    C367    C    0.75005   0.87179   0.87179   1.000
    C368    C    0.34936   0.00759   0.17756   1.000
    C369    C    0.34925   0.00756   0.67764   1.000
    C370    C    0.34934   0.50754   0.17756   1.000
    C371    C    0.34928   0.50753   0.67761   1.000
    C372    C    0.84938   0.00759   0.17756   1.000
    C373    C    0.84927   0.00756   0.67764   1.000
    C374    C    0.84936   0.50754   0.17756   1.000
    C375    C    0.84930   0.50753   0.67761   1.000
    C376    C    0.34130   0.40027   0.20587   1.000
    C377    C    0.34133   0.40027   0.70587   1.000
    C378    C    0.34127   0.90031   0.20584   1.000
    C379    C    0.34133   0.90028   0.70585   1.000
    C380    C    0.84131   0.40027   0.20587   1.000
    C381    C    0.84135   0.40027   0.70587   1.000
    C382    C    0.84129   0.90031   0.20584   1.000
    C383    C    0.84135   0.90028   0.70585   1.000
    C384    C    0.02626   0.07680   0.21914   1.000
    C385    C    0.02609   0.07695   0.71900   1.000
    C386    C    0.02628   0.57678   0.21914   1.000
    C387    C    0.02615   0.57689   0.71907   1.000
    C388    C    0.52628   0.07680   0.21914   1.000
    C389    C    0.52610   0.07695   0.71900   1.000
    C390    C    0.52630   0.57678   0.21914   1.000
    C391    C    0.52616   0.57689   0.71907   1.000
    C392    C    0.10837   0.03649   0.15091   1.000
    C393    C    0.10834   0.03653   0.65095   1.000
    C394    C    0.10840   0.53648   0.15090   1.000
    C395    C    0.10837   0.53650   0.65094   1.000
    C396    C    0.60839   0.03649   0.15091   1.000
    C397    C    0.60836   0.03653   0.65095   1.000
    C398    C    0.60841   0.53648   0.15090   1.000
    C399    C    0.60839   0.53650   0.65094   1.000
    C400    C    0.34917   0.49250   0.32225   1.000
    C401    C    0.34924   0.49251   0.82230   1.000
    C402    C    0.34922   0.99246   0.32228   1.000
    C403    C    0.34933   0.99244   0.82236   1.000
    C404    C    0.84919   0.49250   0.32225   1.000
    C405    C    0.84926   0.49251   0.82230   1.000
    C406    C    0.84923   0.99246   0.32228   1.000
    C407    C    0.84935   0.99244   0.82236   1.000
    C408    C    0.34131   0.09974   0.29419   1.000
    C409    C    0.34127   0.09972   0.79418   1.000
    C410    C    0.34135   0.59977   0.29416   1.000
    C411    C    0.34133   0.59979   0.79410   1.000
    C412    C    0.84132   0.09974   0.29419   1.000
    C413    C    0.84129   0.09972   0.79418   1.000
    C414    C    0.84137   0.59977   0.29416   1.000
    C415    C    0.84135   0.59979   0.79413   1.000
    C416    C    0.02596   0.42297   0.28099   1.000
    C417    C    0.02607   0.42308   0.78094   1.000
    C418    C    0.02597   0.92296   0.28099   1.000
    C419    C    0.02612   0.92310   0.78090   1.000
    C420    C    0.52598   0.42297   0.28099   1.000
    C421    C    0.52609   0.42308   0.78094   1.000
    C422    C    0.52599   0.92296   0.28099   1.000
    C423    C    0.52614   0.92310   0.78091   1.000
    C424    C    0.10834   0.46341   0.34905   1.000
    C425    C    0.10837   0.46345   0.84900   1.000
    C426    C    0.10833   0.96341   0.34904   1.000
    C427    C    0.10838   0.96346   0.84908   1.000
    C428    C    0.60835   0.46341   0.34905   1.000
    C429    C    0.60839   0.46345   0.84900   1.000
    C430    C    0.60835   0.96341   0.34900   1.000
    C431    C    0.60840   0.96346   0.84908   1.000
    C432    C    0.15061   0.17749   0.00764   1.000
    C433    C    0.15064   0.17748   0.50760   1.000
    C434    C    0.15069   0.67752   0.00764   1.000
    C435    C    0.15068   0.67749   0.50762   1.000
    C436    C    0.65063   0.17749   0.00764   1.000
    C437    C    0.65066   0.17748   0.50760   1.000
    C438    C    0.65071   0.67752   0.00764   1.000
    C439    C    0.65070   0.67749   0.50762   1.000
    C440    C    0.15869   0.20587   0.40040   1.000
    C441    C    0.15874   0.20584   0.90044   1.000
    C442    C    0.15867   0.70586   0.40040   1.000
    C443    C    0.15870   0.70583   0.90040   1.000
    C444    C    0.65871   0.20587   0.40040   1.000
    C445    C    0.65876   0.20584   0.90044   1.000
    C446    C    0.65869   0.70586   0.40040   1.000
    C447    C    0.65872   0.70583   0.90044   1.000
    C448    C    0.47376   0.21918   0.07676   1.000
    C449    C    0.47374   0.21918   0.57675   1.000
    C450    C    0.47394   0.71907   0.07691   1.000
    C451    C    0.47386   0.71911   0.57684   1.000
    C452    C    0.97378   0.21918   0.07676   1.000
    C453    C    0.97376   0.21918   0.57675   1.000
    C454    C    0.97396   0.71907   0.07691   1.000
    C455    C    0.97388   0.71911   0.57684   1.000
    C456    C    0.39162   0.15089   0.03650   1.000
    C457    C    0.39161   0.15088   0.53651   1.000
    C458    C    0.39166   0.65092   0.03654   1.000
    C459    C    0.39164   0.65090   0.53653   1.000
    C460    C    0.89164   0.15089   0.03650   1.000
    C461    C    0.89163   0.15088   0.53651   1.000
    C462    C    0.89168   0.65092   0.03654   1.000
    C463    C    0.89166   0.65090   0.53653   1.000
    C464    C    0.15087   0.32230   0.49243   1.000
    C465    C    0.15084   0.32232   0.99239   1.000
    C466    C    0.15085   0.82231   0.49246   1.000
    C467    C    0.15076   0.82236   0.99240   1.000
    C468    C    0.65088   0.32230   0.49243   1.000
    C469    C    0.65085   0.32232   0.99239   1.000
    C470    C    0.65087   0.82231   0.49246   1.000
    C471    C    0.65077   0.82236   0.99240   1.000
    C472    C    0.15868   0.29415   0.09960   1.000
    C473    C    0.15865   0.29412   0.59964   1.000
    C474    C    0.15873   0.79413   0.09961   1.000
    C475    C    0.15867   0.79408   0.59968   1.000
    C476    C    0.65870   0.29415   0.09960   1.000
    C477    C    0.65867   0.29412   0.59964   1.000
    C478    C    0.65875   0.79413   0.09961   1.000
    C479    C    0.65869   0.79407   0.59968   1.000
    C480    C    0.47405   0.28095   0.42301   1.000
    C481    C    0.47406   0.28095   0.92300   1.000
    C482    C    0.47398   0.78090   0.42310   1.000
    C483    C    0.47392   0.78086   0.92315   1.000
    C484    C    0.97407   0.28095   0.42301   1.000
    C485    C    0.97408   0.28095   0.92300   1.000
    C486    C    0.97400   0.78090   0.42310   1.000
    C487    C    0.97394   0.78086   0.92315   1.000
    C488    C    0.39168   0.34905   0.46340   1.000
    C489    C    0.39170   0.34904   0.96341   1.000
    C490    C    0.39167   0.84906   0.46343   1.000
    C491    C    0.39167   0.84906   0.96347   1.000
    C492    C    0.89170   0.34905   0.46340   1.000
    C493    C    0.89172   0.34904   0.96341   1.000
    C494    C    0.89168   0.84906   0.46343   1.000
    C495    C    0.89169   0.84906   0.96347   1.000
    O496    O    0.10241   0.71374   0.00382   1.000
    O497    O    0.01405   0.73452   0.03846   1.000
    O498    O    0.01404   0.76541   0.96158   1.000
    O499    O    0.10245   0.78616   0.99620   1.000
    O500    O    0.16305   0.67367   0.98110   1.000
    O501    O    0.66300   0.17364   0.98109   1.000
    O502    O    0.60238   0.21374   0.00380   1.000
    O503    O    0.16298   0.17364   0.98109   1.000
    O504    O    0.10236   0.21374   0.00380   1.000
    O505    O    0.66307   0.67367   0.98110   1.000
    O506    O    0.26454   0.39233   0.02609   1.000
    O507    O    0.76456   0.39233   0.02609   1.000
    O508    O    0.26437   0.89242   0.02613   1.000
    O509    O    0.76439   0.89242   0.02613   1.000
    O510    O    0.70671   0.41205   0.02639   1.000
    O511    O    0.20669   0.41205   0.02639   1.000
    O512    O    0.20647   0.91210   0.02642   1.000
    O513    O    0.70649   0.91210   0.02642   1.000
    O514    O    0.89789   0.16543   0.05614   1.000
    O515    O    0.39787   0.16543   0.05614   1.000
    O516    O    0.89797   0.66543   0.05621   1.000
    O517    O    0.39795   0.66543   0.05621   1.000
    O518    O    0.20271   0.36103   0.04224   1.000
    O519    O    0.24013   0.39407   0.07133   1.000
    O520    O    0.70273   0.36103   0.04224   1.000
    O521    O    0.74015   0.39407   0.07133   1.000
    O522    O    0.20258   0.86107   0.04226   1.000
    O523    O    0.23989   0.89415   0.07135   1.000
    O524    O    0.70260   0.86107   0.04226   1.000
    O525    O    0.73991   0.89415   0.07132   1.000
    O526    O    0.66710   0.31212   0.07254   1.000
    O527    O    0.66318   0.32620   0.01893   1.000
    O528    O    0.16708   0.31212   0.07254   1.000
    O529    O    0.16316   0.32620   0.01893   1.000
    O530    O    0.66709   0.81212   0.07255   1.000
    O531    O    0.66311   0.82624   0.01895   1.000
    O532    O    0.16707   0.81212   0.07255   1.000
    O533    O    0.16309   0.82624   0.01895   1.000
    O534    O    0.79365   0.97354   0.08787   1.000
    O535    O    0.29363   0.97354   0.08787   1.000
    O536    O    0.79357   0.47352   0.08790   1.000
    O537    O    0.29355   0.47352   0.08790   1.000
    O538    O    0.43894   0.19958   0.07627   1.000
    O539    O    0.36789   0.17624   0.10290   1.000
    O540    O    0.93896   0.19958   0.07627   1.000
    O541    O    0.86791   0.17624   0.10290   1.000
    O542    O    0.43909   0.69950   0.07639   1.000
    O543    O    0.36801   0.67618   0.10300   1.000
    O544    O    0.93911   0.69950   0.07639   1.000
    O545    O    0.86803   0.67618   0.10300   1.000
    O546    O    0.51394   0.23458   0.03836   1.000
    O547    O    0.01394   0.23458   0.03836   1.000
    O548    O    0.73579   0.13403   0.10520   1.000
    O549    O    0.23578   0.13403   0.10520   1.000
    O550    O    0.23586   0.63403   0.10525   1.000
    O551    O    0.73588   0.63403   0.10525   1.000
    O552    O    0.76022   0.92861   0.10576   1.000
    O553    O    0.77940   0.88210   0.11449   1.000
    O554    O    0.72071   0.88544   0.11779   1.000
    O555    O    0.76034   0.42851   0.10581   1.000
    O556    O    0.77976   0.38205   0.11444   1.000
    O557    O    0.72106   0.38524   0.11782   1.000
    O558    O    0.26032   0.42851   0.10581   1.000
    O559    O    0.27974   0.38205   0.11444   1.000
    O560    O    0.22104   0.38524   0.11782   1.000
    O561    O    0.26020   0.92861   0.10580   1.000
    O562    O    0.27938   0.88210   0.11453   1.000
    O563    O    0.22069   0.88544   0.11783   1.000
    O564    O    0.23572   0.97386   0.10750   1.000
    O565    O    0.73574   0.97386   0.10750   1.000
    O566    O    0.73566   0.47371   0.10757   1.000
    O567    O    0.23564   0.47371   0.10757   1.000
    O568    O    0.79753   0.95770   0.13887   1.000
    O569    O    0.29751   0.95770   0.13887   1.000
    O570    O    0.79752   0.45763   0.13891   1.000
    O571    O    0.29750   0.45763   0.13891   1.000
    O572    O    0.81528   0.19555   0.12821   1.000
    O573    O    0.31526   0.19555   0.12821   1.000
    O574    O    0.31540   0.69548   0.12834   1.000
    O575    O    0.81542   0.69548   0.12834   1.000
    O576    O    0.29084   0.15033   0.12910   1.000
    O577    O    0.26425   0.10517   0.13406   1.000
    O578    O    0.20921   0.12910   0.15033   1.000
    O579    O    0.79086   0.15033   0.12910   1.000
    O580    O    0.76427   0.10517   0.13406   1.000
    O581    O    0.70923   0.12910   0.15033   1.000
    O582    O    0.29093   0.65028   0.12918   1.000
    O583    O    0.26429   0.60514   0.13409   1.000
    O584    O    0.20927   0.62908   0.15038   1.000
    O585    O    0.79095   0.65028   0.12918   1.000
    O586    O    0.76431   0.60514   0.13409   1.000
    O587    O    0.70929   0.62908   0.15038   1.000
    O588    O    0.35056   0.16354   0.15287   1.000
    O589    O    0.85058   0.16354   0.15287   1.000
    O590    O    0.35067   0.66343   0.15297   1.000
    O591    O    0.85068   0.66343   0.15297   1.000
    O592    O    0.60218   0.55613   0.16543   1.000
    O593    O    0.10216   0.55613   0.16543   1.000
    O594    O    0.10213   0.05614   0.16543   1.000
    O595    O    0.60215   0.05614   0.16543   1.000
    O596    O    0.14951   0.15290   0.16352   1.000
    O597    O    0.64953   0.15290   0.16352   1.000
    O598    O    0.14957   0.65287   0.16356   1.000
    O599    O    0.64959   0.65287   0.16356   1.000
    O600    O    0.33702   0.98102   0.17370   1.000
    O601    O    0.33297   0.92738   0.18784   1.000
    O602    O    0.83703   0.98102   0.17370   1.000
    O603    O    0.83299   0.92738   0.18784   1.000
    O604    O    0.33701   0.48097   0.17371   1.000
    O605    O    0.33298   0.42734   0.18786   1.000
    O606    O    0.83702   0.48097   0.17371   1.000
    O607    O    0.83300   0.42734   0.18786   1.000
    O608    O    0.13214   0.10292   0.17623   1.000
    O609    O    0.18482   0.12825   0.19553   1.000
    O610    O    0.63216   0.10292   0.17623   1.000
    O611    O    0.68483   0.12825   0.19553   1.000
    O612    O    0.13218   0.60289   0.17625   1.000
    O613    O    0.18486   0.62820   0.19557   1.000
    O614    O    0.63220   0.60289   0.17625   1.000
    O615    O    0.68488   0.62820   0.19557   1.000
    O616    O    0.89765   0.00378   0.21378   1.000
    O617    O    0.39763   0.00378   0.21378   1.000
    O618    O    0.89764   0.50375   0.21377   1.000
    O619    O    0.39762   0.50375   0.21377   1.000
    O620    O    0.06107   0.07630   0.19955   1.000
    O621    O    0.56109   0.07630   0.19955   1.000
    O622    O    0.56112   0.57628   0.19956   1.000
    O623    O    0.06110   0.57628   0.19956   1.000
    O624    O    0.48609   0.03839   0.23457   1.000
    O625    O    0.98610   0.53837   0.23456   1.000
    O626    O    0.98609   0.03839   0.23457   1.000
    O627    O    0.48610   0.53837   0.23456   1.000
    O628    O    0.98594   0.46147   0.26549   1.000
    O629    O    0.89756   0.49623   0.28612   1.000
    O630    O    0.48594   0.46147   0.26549   1.000
    O631    O    0.39754   0.49623   0.28612   1.000
    O632    O    0.48595   0.96147   0.26549   1.000
    O633    O    0.39756   0.99622   0.28614   1.000
    O634    O    0.98595   0.96147   0.26549   1.000
    O635    O    0.89758   0.99621   0.28614   1.000
    O636    O    0.56087   0.92350   0.30054   1.000
    O637    O    0.56086   0.42351   0.30054   1.000
    O638    O    0.06085   0.92350   0.30054   1.000
    O639    O    0.06084   0.42351   0.30054   1.000
    O640    O    0.68465   0.37160   0.30447   1.000
    O641    O    0.18463   0.37160   0.30447   1.000
    O642    O    0.68461   0.87155   0.30452   1.000
    O643    O    0.18460   0.87155   0.30452   1.000
    O644    O    0.83298   0.57269   0.31211   1.000
    O645    O    0.33296   0.57269   0.31211   1.000
    O646    O    0.83296   0.07265   0.31214   1.000
    O647    O    0.33294   0.07265   0.31214   1.000
    O648    O    0.13200   0.39693   0.32379   1.000
    O649    O    0.10203   0.44373   0.33457   1.000
    O650    O    0.63202   0.39693   0.32379   1.000
    O651    O    0.60205   0.44373   0.33457   1.000
    O652    O    0.63200   0.89690   0.32383   1.000
    O653    O    0.60205   0.94372   0.33455   1.000
    O654    O    0.13198   0.89690   0.32383   1.000
    O655    O    0.10203   0.94372   0.33457   1.000
    O656    O    0.83689   0.51906   0.32616   1.000
    O657    O    0.33687   0.51906   0.32616   1.000
    O658    O    0.83691   0.01901   0.32619   1.000
    O659    O    0.33690   0.01901   0.32619   1.000
    O660    O    0.35062   0.33651   0.34696   1.000
    O661    O    0.85063   0.33651   0.34698   1.000
    O662    O    0.85056   0.83643   0.34705   1.000
    O663    O    0.35055   0.83643   0.34706   1.000
    O664    O    0.64945   0.34695   0.33652   1.000
    O665    O    0.70917   0.37079   0.34963   1.000
    O666    O    0.14943   0.34695   0.33652   1.000
    O667    O    0.20915   0.37079   0.34963   1.000
    O668    O    0.64940   0.84692   0.33628   1.000
    O669    O    0.70913   0.87076   0.34968   1.000
    O670    O    0.14938   0.84692   0.33658   1.000
    O671    O    0.20911   0.87076   0.34968   1.000
    O672    O    0.79737   0.54235   0.36099   1.000
    O673    O    0.29735   0.54235   0.36099   1.000
    O674    O    0.79738   0.04230   0.36102   1.000
    O675    O    0.29736   0.04230   0.36102   1.000
    O676    O    0.26419   0.39477   0.36585   1.000
    O677    O    0.76420   0.39477   0.36585   1.000
    O678    O    0.26416   0.89474   0.36589   1.000
    O679    O    0.76418   0.89474   0.36589   1.000
    O680    O    0.72052   0.61458   0.38211   1.000
    O681    O    0.22050   0.61458   0.38211   1.000
    O682    O    0.72029   0.11446   0.38212   1.000
    O683    O    0.22027   0.11446   0.38212   1.000
    O684    O    0.29089   0.34964   0.37077   1.000
    O685    O    0.31541   0.30445   0.37162   1.000
    O686    O    0.36802   0.32378   0.39693   1.000
    O687    O    0.79091   0.34964   0.37078   1.000
    O688    O    0.81543   0.30445   0.37163   1.000
    O689    O    0.86804   0.32378   0.39694   1.000
    O690    O    0.79086   0.84960   0.37085   1.000
    O691    O    0.81535   0.80440   0.37173   1.000
    O692    O    0.86798   0.82374   0.39702   1.000
    O693    O    0.29084   0.84960   0.37085   1.000
    O694    O    0.31533   0.80439   0.37173   1.000
    O695    O    0.36796   0.82374   0.39702   1.000
    O696    O    0.23587   0.36588   0.39474   1.000
    O697    O    0.73589   0.36588   0.39474   1.000
    O698    O    0.73585   0.86586   0.39479   1.000
    O699    O    0.23583   0.86586   0.39479   1.000
    O700    O    0.27897   0.11786   0.38532   1.000
    O701    O    0.77899   0.11786   0.38532   1.000
    O702    O    0.27920   0.61790   0.38536   1.000
    O703    O    0.77922   0.61790   0.38536   1.000
    O704    O    0.73552   0.52619   0.39227   1.000
    O705    O    0.76003   0.57141   0.39407   1.000
    O706    O    0.79338   0.52644   0.41198   1.000
    O707    O    0.23550   0.52619   0.39226   1.000
    O708    O    0.26001   0.57141   0.39407   1.000
    O709    O    0.29336   0.52644   0.41198   1.000
    O710    O    0.23555   0.02609   0.39198   1.000
    O711    O    0.25992   0.07135   0.39409   1.000
    O712    O    0.29341   0.02642   0.41202   1.000
    O713    O    0.73557   0.02609   0.39233   1.000
    O714    O    0.75994   0.07135   0.39409   1.000
    O715    O    0.79343   0.02642   0.41202   1.000
    O716    O    0.73986   0.60584   0.42857   1.000
    O717    O    0.73971   0.10579   0.42857   1.000
    O718    O    0.23984   0.60584   0.42857   1.000
    O719    O    0.23969   0.10579   0.42857   1.000
    O720    O    0.66704   0.18784   0.42745   1.000
    O721    O    0.16702   0.18784   0.42745   1.000
    O722    O    0.16703   0.68784   0.42745   1.000
    O723    O    0.66705   0.68784   0.42745   1.000
    O724    O    0.93919   0.30050   0.42354   1.000
    O725    O    0.01410   0.26546   0.46149   1.000
    O726    O    0.43917   0.30050   0.42354   1.000
    O727    O    0.51410   0.26546   0.46149   1.000
    O728    O    0.43911   0.80046   0.42362   1.000
    O729    O    0.51406   0.76543   0.46155   1.000
    O730    O    0.93912   0.80046   0.42362   1.000
    O731    O    0.01406   0.76543   0.46155   1.000
    O732    O    0.39798   0.33455   0.44373   1.000
    O733    O    0.89800   0.33455   0.44373   1.000
    O734    O    0.39795   0.83454   0.44378   1.000
    O735    O    0.89797   0.83454   0.44378   1.000
    O736    O    0.70261   0.63888   0.45771   1.000
    O737    O    0.66305   0.67365   0.48106   1.000
    O738    O    0.70253   0.13886   0.45771   1.000
    O739    O    0.66301   0.17364   0.48105   1.000
    O740    O    0.20259   0.63888   0.45771   1.000
    O741    O    0.16303   0.67365   0.48106   1.000
    O742    O    0.20251   0.13886   0.45771   1.000
    O743    O    0.16299   0.17364   0.48105   1.000
    O744    O    0.20648   0.08782   0.47351   1.000
    O745    O    0.26438   0.10752   0.47376   1.000
    O746    O    0.70650   0.08782   0.47351   1.000
    O747    O    0.76440   0.10752   0.47376   1.000
    O748    O    0.20661   0.58784   0.47355   1.000
    O749    O    0.26449   0.60757   0.47378   1.000
    O750    O    0.70663   0.58784   0.47355   1.000
    O751    O    0.76451   0.60757   0.47378   1.000
    O752    O    0.10249   0.28614   0.49620   1.000
    O753    O    0.16318   0.32618   0.51897   1.000
    O754    O    0.60251   0.28614   0.49620   1.000
    O755    O    0.66320   0.32618   0.51897   1.000
    O756    O    0.10249   0.78614   0.49624   1.000
    O757    O    0.16316   0.82618   0.51902   1.000
    O758    O    0.60251   0.78613   0.49624   1.000
    O759    O    0.66318   0.82618   0.51902   1.000
    O760    O    0.60240   0.21373   0.50379   1.000
    O761    O    0.51394   0.23458   0.53836   1.000
    O762    O    0.10238   0.21373   0.50379   1.000
    O763    O    0.01394   0.23458   0.53836   1.000
    O764    O    0.10241   0.71373   0.50382   1.000
    O765    O    0.01401   0.73454   0.53843   1.000
    O766    O    0.60243   0.71373   0.50382   1.000
    O767    O    0.51401   0.73454   0.53843   1.000
    O768    O    0.76462   0.39227   0.52619   1.000
    O769    O    0.26460   0.39227   0.52622   1.000
    O770    O    0.26456   0.89227   0.52633   1.000
    O771    O    0.76458   0.89227   0.52633   1.000
    O772    O    0.70671   0.91201   0.52646   1.000
    O773    O    0.20668   0.91201   0.52646   1.000
    O774    O    0.70676   0.41202   0.52644   1.000
    O775    O    0.20675   0.41202   0.52644   1.000
    O776    O    0.89787   0.16543   0.55614   1.000
    O777    O    0.39786   0.16543   0.55614   1.000
    O778    O    0.39791   0.66542   0.55618   1.000
    O779    O    0.89793   0.66542   0.55618   1.000
    O780    O    0.70274   0.36099   0.54229   1.000
    O781    O    0.74006   0.39405   0.57141   1.000
    O782    O    0.20272   0.36099   0.54229   1.000
    O783    O    0.24004   0.39405   0.57141   1.000
    O784    O    0.20267   0.86099   0.54236   1.000
    O785    O    0.23985   0.89408   0.57148   1.000
    O786    O    0.70269   0.86098   0.54236   1.000
    O787    O    0.73987   0.89408   0.57148   1.000
    O788    O    0.16707   0.31209   0.57257   1.000
    O789    O    0.66709   0.31209   0.57257   1.000
    O790    O    0.66709   0.81206   0.57263   1.000
    O791    O    0.16707   0.81206   0.57263   1.000
    O792    O    0.79341   0.47352   0.58795   1.000
    O793    O    0.29339   0.47352   0.58795   1.000
    O794    O    0.79338   0.97352   0.58796   1.000
    O795    O    0.29336   0.97352   0.58796   1.000
    O796    O    0.93894   0.19958   0.57626   1.000
    O797    O    0.86788   0.17626   0.60289   1.000
    O798    O    0.43892   0.19958   0.57626   1.000
    O799    O    0.36786   0.17626   0.60289   1.000
    O800    O    0.93904   0.69953   0.57634   1.000
    O801    O    0.86796   0.67621   0.60295   1.000
    O802    O    0.43902   0.69953   0.57634   1.000
    O803    O    0.36795   0.67621   0.60295   1.000
    O804    O    0.23575   0.13405   0.60519   1.000
    O805    O    0.73576   0.13405   0.60519   1.000
    O806    O    0.73583   0.63404   0.60522   1.000
    O807    O    0.23581   0.63404   0.60522   1.000
    O808    O    0.26015   0.42852   0.60588   1.000
    O809    O    0.27950   0.38204   0.61460   1.000
    O810    O    0.22079   0.38528   0.61787   1.000
    O811    O    0.76017   0.42852   0.60588   1.000
    O812    O    0.77952   0.38204   0.61460   1.000
    O813    O    0.72081   0.38528   0.61787   1.000
    O814    O    0.25998   0.92857   0.60592   1.000
    O815    O    0.27912   0.88206   0.61474   1.000
    O816    O    0.22041   0.88543   0.61790   1.000
    O817    O    0.76000   0.92857   0.60592   1.000
    O818    O    0.77914   0.88206   0.61475   1.000
    O819    O    0.72043   0.88543   0.61790   1.000
    O820    O    0.23551   0.47372   0.60761   1.000
    O821    O    0.23550   0.97383   0.60765   1.000
    O822    O    0.73552   0.97383   0.60765   1.000
    O823    O    0.73553   0.47372   0.60765   1.000
    O824    O    0.29740   0.45763   0.63895   1.000
    O825    O    0.79742   0.45763   0.63895   1.000
    O826    O    0.29736   0.95767   0.63896   1.000
    O827    O    0.79738   0.95767   0.63896   1.000
    O828    O    0.31522   0.19558   0.62818   1.000
    O829    O    0.81524   0.19558   0.62818   1.000
    O830    O    0.31532   0.69552   0.62827   1.000
    O831    O    0.81534   0.69552   0.62827   1.000
    O832    O    0.79081   0.15037   0.62910   1.000
    O833    O    0.76419   0.10520   0.63408   1.000
    O834    O    0.70915   0.12917   0.65031   1.000
    O835    O    0.29079   0.15037   0.62910   1.000
    O836    O    0.26418   0.10520   0.63408   1.000
    O837    O    0.20913   0.12917   0.65031   1.000
    O838    O    0.29087   0.65032   0.62914   1.000
    O839    O    0.26422   0.60517   0.63409   1.000
    O840    O    0.20919   0.62913   0.65033   1.000
    O841    O    0.79088   0.65032   0.62914   1.000
    O842    O    0.76424   0.60517   0.63409   1.000
    O843    O    0.70921   0.62913   0.65033   1.000
    O844    O    0.35051   0.16358   0.65286   1.000
    O845    O    0.85053   0.16357   0.65286   1.000
    O846    O    0.35060   0.66349   0.65292   1.000
    O847    O    0.85062   0.66349   0.65292   1.000
    O848    O    0.60212   0.55617   0.66544   1.000
    O849    O    0.10210   0.55617   0.66544   1.000
    O850    O    0.10206   0.05621   0.66544   1.000
    O851    O    0.60208   0.05621   0.66544   1.000
    O852    O    0.64944   0.15300   0.66343   1.000
    O853    O    0.14942   0.15300   0.66343   1.000
    O854    O    0.64950   0.65295   0.66347   1.000
    O855    O    0.14948   0.65295   0.66347   1.000
    O856    O    0.33695   0.48097   0.67375   1.000
    O857    O    0.33298   0.42734   0.68788   1.000
    O858    O    0.83697   0.48097   0.67375   1.000
    O859    O    0.83300   0.42734   0.68788   1.000
    O860    O    0.33692   0.98100   0.67377   1.000
    O861    O    0.33296   0.92735   0.68787   1.000
    O862    O    0.83694   0.98100   0.67377   1.000
    O863    O    0.83298   0.92735   0.68787   1.000
    O864    O    0.13204   0.10302   0.67619   1.000
    O865    O    0.18469   0.12837   0.69548   1.000
    O866    O    0.63206   0.10302   0.67619   1.000
    O867    O    0.68471   0.12837   0.69548   1.000
    O868    O    0.13209   0.60297   0.67621   1.000
    O869    O    0.18475   0.62831   0.69551   1.000
    O870    O    0.63211   0.60297   0.67621   1.000
    O871    O    0.68477   0.62831   0.69551   1.000
    O872    O    0.89761   0.50377   0.71380   1.000
    O873    O    0.39759   0.50377   0.71380   1.000
    O874    O    0.39758   0.00379   0.71382   1.000
    O875    O    0.89760   0.00379   0.71382   1.000
    O876    O    0.56095   0.07642   0.69947   1.000
    O877    O    0.06094   0.07642   0.69947   1.000
    O878    O    0.56101   0.57637   0.69951   1.000
    O879    O    0.06099   0.57637   0.69951   1.000
    O880    O    0.48601   0.03849   0.73450   1.000
    O881    O    0.98601   0.03849   0.73450   1.000
    O882    O    0.48604   0.53845   0.73453   1.000
    O883    O    0.98604   0.53845   0.73453   1.000
    O884    O    0.98600   0.46154   0.76547   1.000
    O885    O    0.89759   0.49626   0.78615   1.000
    O886    O    0.48600   0.46154   0.76547   1.000
    O887    O    0.39757   0.49626   0.78615   1.000
    O888    O    0.48602   0.96156   0.76545   1.000
    O889    O    0.39762   0.99623   0.78618   1.000
    O890    O    0.98602   0.96156   0.76545   1.000
    O891    O    0.89764   0.99623   0.78618   1.000
    O892    O    0.06097   0.92362   0.80048   1.000
    O893    O    0.56099   0.92362   0.80049   1.000
    O894    O    0.56096   0.42360   0.80047   1.000
    O895    O    0.06094   0.42360   0.80047   1.000
    O896    O    0.18474   0.37171   0.80442   1.000
    O897    O    0.68475   0.37171   0.80439   1.000
    O898    O    0.18472   0.87168   0.80447   1.000
    O899    O    0.68474   0.87168   0.80447   1.000
    O900    O    0.33298   0.57271   0.81209   1.000
    O901    O    0.83300   0.57271   0.81210   1.000
    O902    O    0.83298   0.07264   0.81216   1.000
    O903    O    0.33296   0.07264   0.81216   1.000
    O904    O    0.13209   0.39701   0.82373   1.000
    O905    O    0.10209   0.44379   0.83450   1.000
    O906    O    0.63211   0.39701   0.82370   1.000
    O907    O    0.60211   0.44379   0.83450   1.000
    O908    O    0.63210   0.89700   0.82379   1.000
    O909    O    0.60212   0.94380   0.83457   1.000
    O910    O    0.13208   0.89700   0.82379   1.000
    O911    O    0.10210   0.94380   0.83457   1.000
    O912    O    0.33694   0.51907   0.82619   1.000
    O913    O    0.83695   0.51907   0.82619   1.000
    O914    O    0.33699   0.01900   0.82625   1.000
    O915    O    0.83701   0.01900   0.82625   1.000
    O916    O    0.35067   0.33656   0.84696   1.000
    O917    O    0.85069   0.33656   0.84696   1.000
    O918    O    0.85061   0.83647   0.84706   1.000
    O919    O    0.35059   0.83647   0.84705   1.000
    O920    O    0.64954   0.34704   0.83642   1.000
    O921    O    0.70924   0.37086   0.84955   1.000
    O922    O    0.14952   0.34704   0.83645   1.000
    O923    O    0.20922   0.37086   0.84958   1.000
    O924    O    0.14948   0.84702   0.83650   1.000
    O925    O    0.20919   0.87083   0.84965   1.000
    O926    O    0.64950   0.84702   0.83650   1.000
    O927    O    0.70921   0.87083   0.84965   1.000
    O928    O    0.79747   0.54239   0.86101   1.000
    O929    O    0.29745   0.54239   0.86101   1.000
    O930    O    0.79753   0.04230   0.86109   1.000
    O931    O    0.29751   0.04230   0.86109   1.000
    O932    O    0.26425   0.39481   0.86584   1.000
    O933    O    0.76427   0.39481   0.86584   1.000
    O934    O    0.26424   0.89478   0.86590   1.000
    O935    O    0.76425   0.89478   0.86590   1.000
    O936    O    0.72095   0.61473   0.88215   1.000
    O937    O    0.22093   0.61472   0.88215   1.000
    O938    O    0.72066   0.11452   0.88217   1.000
    O939    O    0.22064   0.11452   0.88217   1.000
    O940    O    0.79096   0.34969   0.87075   1.000
    O941    O    0.81547   0.30451   0.87159   1.000
    O942    O    0.86808   0.32381   0.89693   1.000
    O943    O    0.29094   0.34969   0.87075   1.000
    O944    O    0.31545   0.30451   0.87159   1.000
    O945    O    0.36806   0.32381   0.89693   1.000
    O946    O    0.29088   0.84964   0.87085   1.000
    O947    O    0.31534   0.80444   0.87171   1.000
    O948    O    0.36797   0.82375   0.89703   1.000
    O949    O    0.79089   0.84964   0.87085   1.000
    O950    O    0.81536   0.80444   0.87172   1.000
    O951    O    0.86799   0.82375   0.89701   1.000
    O952    O    0.73593   0.36591   0.89471   1.000
    O953    O    0.23591   0.36591   0.89471   1.000
    O954    O    0.73586   0.86591   0.89477   1.000
    O955    O    0.23585   0.86591   0.89477   1.000
    O956    O    0.27932   0.11786   0.88552   1.000
    O957    O    0.77934   0.11786   0.88552   1.000
    O958    O    0.77965   0.61792   0.88554   1.000
    O959    O    0.27963   0.61792   0.88554   1.000
    O960    O    0.73562   0.52629   0.89231   1.000
    O961    O    0.76027   0.57147   0.89414   1.000
    O962    O    0.79352   0.52646   0.91201   1.000
    O963    O    0.23560   0.52629   0.89227   1.000
    O964    O    0.26025   0.57147   0.89414   1.000
    O965    O    0.29350   0.52646   0.91201   1.000
    O966    O    0.73577   0.02611   0.89244   1.000
    O967    O    0.76019   0.07136   0.89419   1.000
    O968    O    0.79367   0.02642   0.91209   1.000
    O969    O    0.23575   0.02611   0.89244   1.000
    O970    O    0.26017   0.07136   0.89419   1.000
    O971    O    0.29365   0.02642   0.91209   1.000
    O972    O    0.74007   0.60587   0.92866   1.000
    O973    O    0.24005   0.60587   0.92866   1.000
    O974    O    0.23982   0.10577   0.92867   1.000
    O975    O    0.73984   0.10577   0.92867   1.000
    O976    O    0.16706   0.68782   0.92748   1.000
    O977    O    0.16704   0.18781   0.92749   1.000
    O978    O    0.66708   0.68782   0.92749   1.000
    O979    O    0.60643   0.72790   0.90022   1.000
    O980    O    0.66706   0.18781   0.92749   1.000
    O981    O    0.93920   0.30051   0.92353   1.000
    O982    O    0.01409   0.26547   0.96148   1.000
    O983    O    0.43918   0.30051   0.92353   1.000
    O984    O    0.51409   0.26547   0.96148   1.000
    O985    O    0.93909   0.80044   0.92363   1.000
    O986    O    0.43907   0.80044   0.92366   1.000
    O987    O    0.51403   0.76541   0.91158   1.000
    O988    O    0.39800   0.33455   0.94373   1.000
    O989    O    0.89802   0.33455   0.94373   1.000
    O990    O    0.89796   0.83454   0.94379   1.000
    O991    O    0.39794   0.83454   0.94382   1.000
    O992    O    0.70252   0.13882   0.95777   1.000
    O993    O    0.20250   0.13882   0.95777   1.000
    O994    O    0.20265   0.63888   0.95778   1.000
    O995    O    0.70267   0.63888   0.95778   1.000
    O996    O    0.20638   0.08779   0.97357   1.000
    O997    O    0.26429   0.10744   0.97392   1.000
    O998    O    0.20664   0.58785   0.97357   1.000
    O999    O    0.26450   0.60755   0.97392   1.000
    O1000   O    0.70640   0.08779   0.97357   1.000
    O1001   O    0.76431   0.10744   0.97392   1.000
    O1002   O    0.70666   0.58785   0.97357   1.000
    O1003   O    0.76452   0.60755   0.97392   1.000
    O1004   O    0.10247   0.28615   0.99618   1.000
    O1005   O    0.60249   0.28615   0.99618   1.000
loop_
    _geom_bond_atom_site_label_1
    _geom_bond_atom_site_label_2
    _geom_bond_distance
    _geom_bond_site_symmetry_2
    _ccdc_geom_bond_type
    C11    O496      1.02136      .   S
    C434   O496      1.02136      .   S
    C11    O497      0.98261      .   S
    C454   O497      0.98261  1_655   S
    C11    O498      0.98189  1_554   S
    C487   O498      0.98189  1_655   S
    C11    O499      1.02146  1_554   S
    C467   O499      1.02146      .   S
    C434   O500      0.64382  1_554   S
    C283   O500      0.64382      .   S
    C436   O501      0.64392  1_554   S
    C285   O501      0.64392      .   S
    C436   O502      1.02152      .   S
    C12    O502      1.02152  1_556   S
    C432   O503      0.64393  1_554   S
    C281   O503      0.64393      .   S
    C432   O504      1.02152      .   S
    C8     O504      1.02152  1_556   S
    C438   O505      0.64382  1_554   S
    C287   O505      0.64382      .   S
    C168   O506      0.54990      .   S
    C304   O506      0.54990      .   S
    C172   O507      0.54990      .   S
    C308   O507      0.54990      .   S
    C170   O508      0.54989      .   S
    C306   O508      0.54989      .   S
    C174   O509      0.54988      .   S
    C310   O509      0.54988      .   S
    C164   O510      0.54838      .   S
    C308   O510      0.54838      .   S
    C160   O511      0.54838      .   S
    C304   O511      0.54838      .   S
    C162   O512      0.54839      .   S
    C306   O512      0.54839      .   S
    C166   O513      0.54839      .   S
    C310   O513      0.54839      .   S
    C460   O514      0.62311      .   S
    C300   O514      0.62311      .   S
    C456   O515      0.62311      .   S
    C296   O515      0.62311      .   S
    C462   O516      0.62312      .   S
    C302   O516      0.62312      .   S
    C458   O517      0.62312      .   S
    C298   O517      0.62312      .   S
    C304   O518      0.76427      .   S
    C312   O518      0.76427      .   S
    C304   O519      0.74691      .   S
    C336   O519      0.74691      .   S
    C308   O520      0.76427      .   S
    C316   O520      0.76427      .   S
    C308   O521      0.74691      .   S
    C340   O521      0.74691      .   S
    C306   O522      0.76425      .   S
    C314   O522      0.76425      .   S
    C306   O523      0.74695      .   S
    C338   O523      0.74695      .   S
    C310   O524      0.76426      .   S
    C318   O524      0.76426      .   S
    C310   O525      0.74607      .   S
    C342   O525      0.74607      .   S
    C316   O526      0.62216      .   S
    C476   O526      0.62216      .   S
    C316   O527      0.64379      .   S
    C469   O527      0.64379  1_556   S
    C312   O528      0.62216      .   S
    C472   O528      0.62216      .   S
    C312   O529      0.64379      .   S
    C465   O529      0.64379  1_556   S
    C318   O530      0.62211      .   S
    C478   O530      0.62211      .   S
    C318   O531      0.64382      .   S
    C471   O531      0.64382  1_556   S
    C314   O532      0.62211      .   S
    C474   O532      0.62211      .   S
    C314   O533      0.64382      .   S
    C467   O533      0.64382  1_556   S
    C22    O534      0.54837      .   S
    C214   O534      0.54837      .   S
    C18    O535      0.54837      .   S
    C210   O535      0.54837      .   S
    C20    O536      0.54841      .   S
    C212   O536      0.54841      .   S
    C16    O537      0.54841      .   S
    C208   O537      0.54841      .   S
    C296   O538      0.64545      .   S
    C448   O538      0.64545      .   S
    C296   O539      0.76304      .   S
    C288   O539      0.76304      .   S
    C300   O540      0.64546      .   S
    C452   O540      0.64546      .   S
    C300   O541      0.76304      .   S
    C292   O541      0.76304      .   S
    C298   O542      0.64546      .   S
    C450   O542      0.64546      .   S
    C298   O543      0.76308      .   S
    C290   O543      0.76308      .   S
    C302   O544      0.64546      .   S
    C454   O544      0.64546      .   S
    C302   O545      0.76308      .   S
    C294   O545      0.76308      .   S
    C448   O546      0.98234      .   S
    C12    O546      0.98234  1_556   S
    C452   O547      0.98221  1_655   S
    C8     O547      0.98221  1_556   S
    C156   O548      0.52383      .   S
    C356   O548      0.52383      .   S
    C152   O549      0.52383      .   S
    C352   O549      0.52383      .   S
    C154   O550      0.52382      .   S
    C354   O550      0.52382      .   S
    C158   O551      0.52382      .   S
    C358   O551      0.52382      .   S
    C342   O552      0.74720      .   S
    C214   O552      0.74720      .   S
    C342   O553      0.51950      .   S
    C54    O553      0.51950      .   S
    C342   O554      0.51964      .   S
    C198   O554      0.51964      .   S
    C340   O555      0.74691      .   S
    C212   O555      0.74691      .   S
    C340   O556      0.51921      .   S
    C52    O556      0.51921      .   S
    C340   O557      0.51930      .   S
    C196   O557      0.51930      .   S
    C336   O558      0.74690      .   S
    C208   O558      0.74690      .   S
    C336   O559      0.51921      .   S
    C48    O559      0.51921      .   S
    C336   O560      0.51931      .   S
    C192   O560      0.51931      .   S
    C338   O561      0.74688      .   S
    C210   O561      0.74688      .   S
    C338   O562      0.51924      .   S
    C50    O562      0.51924      .   S
    C338   O563      0.51924      .   S
    C194   O563      0.51924      .   S
    C26    O564      0.54985      .   S
    C210   O564      0.54985      .   S
    C30    O565      0.54985      .   S
    C214   O565      0.54985      .   S
    C28    O566      0.54985      .   S
    C212   O566      0.54985      .   S
    C24    O567      0.54985      .   S
    C208   O567      0.54985      .   S
    C214   O568      0.76430      .   S
    C222   O568      0.76430      .   S
    C210   O569      0.76430      .   S
    C218   O569      0.76430      .   S
    C212   O570      0.76426      .   S
    C220   O570      0.76426      .   S
    C208   O571      0.76427      .   S
    C216   O571      0.76427      .   S
    C132   O572      0.54843      .   S
    C292   O572      0.54843      .   S
    C128   O573      0.54844      .   S
    C288   O573      0.54844      .   S
    C130   O574      0.54844      .   S
    C290   O574      0.54844      .   S
    C134   O575      0.54843      .   S
    C294   O575      0.54843      .   S
    C352   O576      0.74631      .   S
    C288   O576      0.74631      .   S
    C352   O577      0.52382      .   S
    C56    O577      0.52382      .   S
    C352   O578      0.74632      .   S
    C224   O578      0.74632      .   S
    C356   O579      0.74631      .   S
    C292   O579      0.74631      .   S
    C356   O580      0.52382      .   S
    C60    O580      0.52382      .   S
    C356   O581      0.74631      .   S
    C228   O581      0.74631      .   S
    C354   O582      0.74633      .   S
    C290   O582      0.74633      .   S
    C354   O583      0.52382      .   S
    C58    O583      0.52382      .   S
    C354   O584      0.74630      .   S
    C226   O584      0.74630      .   S
    C358   O585      0.74633      .   S
    C294   O585      0.74633      .   S
    C358   O586      0.52382      .   S
    C62    O586      0.52382      .   S
    C358   O587      0.74630      .   S
    C230   O587      0.74630      .   S
    C288   O588      0.54893      .   S
    C136   O588      0.54893      .   S
    C292   O589      0.54893      .   S
    C140   O589      0.54893      .   S
    C290   O590      0.54893      .   S
    C138   O590      0.54893      .   S
    C294   O591      0.54893      .   S
    C142   O591      0.54893      .   S
    C398   O592      0.62312      .   S
    C238   O592      0.62312      .   S
    C394   O593      0.62312      .   S
    C234   O593      0.62312      .   S
    C392   O594      0.62311      .   S
    C232   O594      0.62311      .   S
    C396   O595      0.62311      .   S
    C236   O595      0.62311      .   S
    C40    O596      0.54894      .   S
    C224   O596      0.54894      .   S
    C44    O597      0.54895      .   S
    C228   O597      0.54895      .   S
    C42    O598      0.54894      .   S
    C226   O598      0.54894      .   S
    C46    O599      0.54894      .   S
    C230   O599      0.54894      .   S
    C218   O600      0.64406      .   S
    C368   O600      0.64406  1_545   S
    C218   O601      0.62207      .   S
    C378   O601      0.62207      .   S
    C222   O602      0.64407      .   S
    C372   O602      0.64407  1_545   S
    C222   O603      0.62207      .   S
    C382   O603      0.62207      .   S
    C216   O604      0.64393      .   S
    C370   O604      0.64393      .   S
    C216   O605      0.62205      .   S
    C376   O605      0.62205      .   S
    C220   O606      0.64393      .   S
    C374   O606      0.64393      .   S
    C220   O607      0.62205      .   S
    C380   O607      0.62205      .   S
    C224   O608      0.76303      .   S
    C232   O608      0.76303      .   S
    C224   O609      0.54847      .   S
    C32    O609      0.54847      .   S
    C228   O610      0.76303      .   S
    C236   O610      0.76303      .   S
    C228   O611      0.54847      .   S
    C36    O611      0.54847      .   S
    C226   O612      0.76304      .   S
    C234   O612      0.76304      .   S
    C226   O613      0.54848      .   S
    C34    O613      0.54848      .   S
    C230   O614      0.76305      .   S
    C238   O614      0.76305      .   S
    C230   O615      0.54848      .   S
    C38    O615      0.54848      .   S
    C372   O616      1.02152      .   S
    C4     O616      1.02152  1_565   S
    C368   O617      1.02153      .   S
    C0     O617      1.02153  1_565   S
    C374   O618      1.02157      .   S
    C6     O618      1.02157      .   S
    C370   O619      1.02157      .   S
    C2     O619      1.02157      .   S
    C232   O620      0.64551      .   S
    C384   O620      0.64551      .   S
    C236   O621      0.64551      .   S
    C388   O621      0.64551      .   S
    C238   O622      0.64546      .   S
    C390   O622      0.64546      .   S
    C234   O623      0.64546      .   S
    C386   O623      0.64546      .   S
    C388   O624      0.98229      .   S
    C0     O624      0.98229  1_565   S
    C386   O625      0.98213  1_455   S
    C6     O625      0.98213      .   S
    C384   O626      0.98215  1_455   S
    C4     O626      0.98215  1_565   S
    C390   O627      0.98227      .   S
    C2     O627      0.98227      .   S
    C6     O628      0.98237      .   S
    C416   O628      0.98237  1_455   S
    C6     O629      1.02139      .   S
    C404   O629      1.02139      .   S
    C2     O630      0.98251      .   S
    C420   O630      0.98251      .   S
    C2     O631      1.02139      .   S
    C400   O631      1.02139      .   S
    C0     O632      0.98269      .   S
    C422   O632      0.98269      .   S
    C0     O633      1.02127      .   S
    C402   O633      1.02127      .   S
    C4     O634      0.98255      .   S
    C418   O634      0.98255  1_455   S
    C4     O635      1.02127      .   S
    C406   O635      1.02127      .   S
    C422   O636      0.64548      .   S
    C270   O636      0.64548      .   S
    C420   O637      0.64550      .   S
    C268   O637      0.64550      .   S
    C418   O638      0.64548      .   S
    C266   O638      0.64548      .   S
    C416   O639      0.64550      .   S
    C264   O639      0.64550      .   S
    C84    O640      0.54846      .   S
    C260   O640      0.54846      .   S
    C80    O641      0.54846      .   S
    C256   O641      0.54846      .   S
    C86    O642      0.54845      .   S
    C262   O642      0.54845      .   S
    C82    O643      0.54845      .   S
    C258   O643      0.54845      .   S
    C414   O644      0.62212      .   S
    C254   O644      0.62212      .   S
    C410   O645      0.62213      .   S
    C250   O645      0.62213      .   S
    C412   O646      0.62211      .   S
    C252   O646      0.62211      .   S
    C408   O647      0.62211      .   S
    C248   O647      0.62211      .   S
    C264   O648      0.76300      .   S
    C256   O648      0.76300      .   S
    C264   O649      0.62313      .   S
    C424   O649      0.62313      .   S
    C268   O650      0.76299      .   S
    C260   O650      0.76299      .   S
    C268   O651      0.62313      .   S
    C428   O651      0.62313      .   S
    C270   O652      0.76299      .   S
    C262   O652      0.76299      .   S
    C270   O653      0.62277      .   S
    C430   O653      0.62277      .   S
    C266   O654      0.76299      .   S
    C258   O654      0.76299      .   S
    C266   O655      0.62309      .   S
    C426   O655      0.62309      .   S
    C404   O656      0.64392      .   S
    C254   O656      0.64392      .   S
    C400   O657      0.64391      .   S
    C250   O657      0.64391      .   S
    C406   O658      0.64409  1_565   S
    C252   O658      0.64409      .   S
    C402   O659      0.64408  1_565   S
    C248   O659      0.64408      .   S
    C184   O660      0.54870      .   S
    C320   O660      0.54870      .   S
    C188   O661      0.54888      .   S
    C324   O661      0.54888      .   S
    C190   O662      0.54891      .   S
    C326   O662      0.54891      .   S
    C186   O663      0.54901      .   S
    C322   O663      0.54901      .   S
    C260   O664      0.54894      .   S
    C92    O664      0.54894      .   S
    C260   O665      0.74630      .   S
    C364   O665      0.74630      .   S
    C256   O666      0.54894      .   S
    C88    O666      0.54894      .   S
    C256   O667      0.74631      .   S
    C360   O667      0.74631      .   S
    C262   O668      0.54844      .   S
    C94    O668      0.54844      .   S
    C262   O669      0.74630      .   S
    C366   O669      0.74630      .   S
    C258   O670      0.54894      .   S
    C90    O670      0.54894      .   S
    C258   O671      0.74630      .   S
    C362   O671      0.74630      .   S
    C254   O672      0.76425      .   S
    C246   O672      0.76425      .   S
    C250   O673      0.76425      .   S
    C242   O673      0.76425      .   S
    C252   O674      0.76426      .   S
    C244   O674      0.76426      .   S
    C248   O675      0.76426      .   S
    C240   O675      0.76426      .   S
    C104   O676      0.52378      .   S
    C360   O676      0.52378      .   S
    C108   O677      0.52378      .   S
    C364   O677      0.52378      .   S
    C106   O678      0.52377      .   S
    C362   O678      0.52377      .   S
    C110   O679      0.52377      .   S
    C366   O679      0.52377      .   S
    C150   O680      0.51924      .   S
    C350   O680      0.51924      .   S
    C146   O681      0.51925      .   S
    C346   O681      0.51925      .   S
    C148   O682      0.51923      .   S
    C348   O682      0.51923      .   S
    C144   O683      0.51923      .   S
    C344   O683      0.51923      .   S
    C320   O684      0.74638      .   S
    C360   O684      0.74638      .   S
    C320   O685      0.54838      .   S
    C176   O685      0.54838      .   S
    C320   O686      0.76319      .   S
    C328   O686      0.76319      .   S
    C324   O687      0.74632      .   S
    C364   O687      0.74632      .   S
    C324   O688      0.54843      .   S
    C180   O688      0.54843      .   S
    C324   O689      0.76302      .   S
    C332   O689      0.76302      .   S
    C326   O690      0.74632      .   S
    C366   O690      0.74632      .   S
    C326   O691      0.54843      .   S
    C182   O691      0.54843      .   S
    C326   O692      0.76305      .   S
    C334   O692      0.76305      .   S
    C322   O693      0.74630      .   S
    C362   O693      0.74630      .   S
    C322   O694      0.54845      .   S
    C178   O694      0.54845      .   S
    C322   O695      0.76298      .   S
    C330   O695      0.76298      .   S
    C360   O696      0.52377      .   S
    C200   O696      0.52377      .   S
    C364   O697      0.52377      .   S
    C204   O697      0.52377      .   S
    C366   O698      0.52380      .   S
    C206   O698      0.52380      .   S
    C362   O699      0.52380      .   S
    C202   O699      0.52380      .   S
    C96    O700      0.51933      .   S
    C344   O700      0.51933      .   S
    C100   O701      0.51933      .   S
    C348   O701      0.51933      .   S
    C98    O702      0.51929      .   S
    C346   O702      0.51929      .   S
    C102   O703      0.51929      .   S
    C350   O703      0.51929      .   S
    C246   O704      0.54986      .   S
    C78    O704      0.54986      .   S
    C246   O705      0.74690      .   S
    C350   O705      0.74690      .   S
    C246   O706      0.54840      .   S
    C70    O706      0.54840      .   S
    C242   O707      0.54989      .   S
    C74    O707      0.54989      .   S
    C242   O708      0.74690      .   S
    C346   O708      0.74690      .   S
    C242   O709      0.54840      .   S
    C66    O709      0.54840      .   S
    C240   O710      0.55103      .   S
    C72    O710      0.55103      .   S
    C240   O711      0.74692      .   S
    C344   O711      0.74692      .   S
    C240   O712      0.54838      .   S
    C64    O712      0.54838      .   S
    C244   O713      0.54985      .   S
    C76    O713      0.54985      .   S
    C244   O714      0.74692      .   S
    C348   O714      0.74692      .   S
    C244   O715      0.54838      .   S
    C68    O715      0.54838      .   S
    C350   O716      0.74700      .   S
    C278   O716      0.74700      .   S
    C348   O717      0.74694      .   S
    C276   O717      0.74694      .   S
    C346   O718      0.74700      .   S
    C274   O718      0.74700      .   S
    C344   O719      0.74694      .   S
    C272   O719      0.74694      .   S
    C444   O720      0.62212      .   S
    C284   O720      0.62212      .   S
    C440   O721      0.62212      .   S
    C280   O721      0.62212      .   S
    C442   O722      0.62210      .   S
    C282   O722      0.62210      .   S
    C446   O723      0.62210      .   S
    C286   O723      0.62210      .   S
    C484   O724      0.64545      .   S
    C332   O724      0.64545      .   S
    C484   O725      0.98236  1_655   S
    C9     O725      0.98236      .   S
    C480   O726      0.64545      .   S
    C328   O726      0.64545      .   S
    C480   O727      0.98250      .   S
    C13    O727      0.98250      .   S
    C482   O728      0.64545      .   S
    C330   O728      0.64545      .   S
    C482   O729      0.98236      .   S
    C14    O729      0.98236      .   S
    C486   O730      0.64546      .   S
    C334   O730      0.64546      .   S
    C486   O731      0.98222  1_655   S
    C10    O731      0.98222      .   S
    C328   O732      0.62319      .   S
    C488   O732      0.62319      .   S
    C332   O733      0.62319      .   S
    C492   O733      0.62319      .   S
    C330   O734      0.62310      .   S
    C490   O734      0.62310      .   S
    C334   O735      0.62310      .   S
    C494   O735      0.62310      .   S
    C286   O736      0.76427      .   S
    C278   O736      0.76427      .   S
    C286   O737      0.64397      .   S
    C439   O737      0.64397      .   S
    C284   O738      0.76429      .   S
    C276   O738      0.76429      .   S
    C284   O739      0.64374      .   S
    C437   O739      0.64374      .   S
    C282   O740      0.76428      .   S
    C274   O740      0.76428      .   S
    C282   O741      0.64396      .   S
    C435   O741      0.64396      .   S
    C280   O742      0.76429      .   S
    C272   O742      0.76429      .   S
    C280   O743      0.64373      .   S
    C433   O743      0.64373      .   S
    C272   O744      0.54811      .   S
    C112   O744      0.54811      .   S
    C272   O745      0.54986      .   S
    C120   O745      0.54986      .   S
    C276   O746      0.54811      .   S
    C116   O746      0.54811      .   S
    C276   O747      0.54986      .   S
    C124   O747      0.54986      .   S
    C274   O748      0.54834      .   S
    C114   O748      0.54834      .   S
    C274   O749      0.54985      .   S
    C122   O749      0.54985      .   S
    C278   O750      0.54834      .   S
    C118   O750      0.54834      .   S
    C278   O751      0.54985      .   S
    C126   O751      0.54985      .   S
    C464   O752      1.02142      .   S
    C9     O752      1.02142      .   S
    C464   O753      0.64359      .   S
    C313   O753      0.64359      .   S
    C468   O754      1.02141      .   S
    C13    O754      1.02141      .   S
    C468   O755      0.64359      .   S
    C317   O755      0.64359      .   S
    C466   O756      1.02146      .   S
    C10    O756      1.02146      .   S
    C466   O757      0.64391      .   S
    C315   O757      0.64391      .   S
    C470   O758      1.02146      .   S
    C14    O758      1.02146      .   S
    C470   O759      0.64391      .   S
    C319   O759      0.64391      .   S
    C13    O760      1.02164      .   S
    C437   O760      1.02164      .   S
    C13    O761      0.98227      .   S
    C449   O761      0.98227      .   S
    C9     O762      1.02164      .   S
    C433   O762      1.02164      .   S
    C9     O763      0.98213      .   S
    C453   O763      0.98213  1_655   S
    C10    O764      1.02160      .   S
    C435   O764      1.02160      .   S
    C10    O765      0.98220      .   S
    C455   O765      0.98220  1_655   S
    C14    O766      1.02160      .   S
    C439   O766      1.02160      .   S
    C14    O767      0.98234      .   S
    C451   O767      0.98234      .   S
    C173   O768      0.55014      .   S
    C309   O768      0.55014      .   S
    C169   O769      0.54986      .   S
    C305   O769      0.54986      .   S
    C171   O770      0.54990      .   S
    C307   O770      0.54990      .   S
    C175   O771      0.54986      .   S
    C311   O771      0.54986      .   S
    C167   O772      0.54836      .   S
    C311   O772      0.54836      .   S
    C163   O773      0.54836      .   S
    C307   O773      0.54836      .   S
    C165   O774      0.54836      .   S
    C309   O774      0.54836      .   S
    C161   O775      0.54836      .   S
    C305   O775      0.54836      .   S
    C461   O776      0.62314      .   S
    C301   O776      0.62314      .   S
    C457   O777      0.62314      .   S
    C297   O777      0.62314      .   S
    C459   O778      0.62312      .   S
    C299   O778      0.62312      .   S
    C463   O779      0.62312      .   S
    C303   O779      0.62312      .   S
    C309   O780      0.76431      .   S
    C317   O780      0.76431      .   S
    C309   O781      0.74693      .   S
    C341   O781      0.74693      .   S
    C305   O782      0.76432      .   S
    C313   O782      0.76432      .   S
    C305   O783      0.74692      .   S
    C337   O783      0.74692      .   S
    C307   O784      0.76424      .   S
    C315   O784      0.76424      .   S
    C307   O785      0.74689      .   S
    C339   O785      0.74689      .   S
    C311   O786      0.76423      .   S
    C319   O786      0.76423      .   S
    C311   O787      0.74689      .   S
    C343   O787      0.74689      .   S
    C313   O788      0.62229      .   S
    C473   O788      0.62229      .   S
    C317   O789      0.62229      .   S
    C477   O789      0.62229      .   S
    C319   O790      0.62210      .   S
    C479   O790      0.62210      .   S
    C315   O791      0.62210      .   S
    C475   O791      0.62210      .   S
    C21    O792      0.54837      .   S
    C213   O792      0.54837      .   S
    C17    O793      0.54838      .   S
    C209   O793      0.54838      .   S
    C23    O794      0.54837      .   S
    C215   O794      0.54837      .   S
    C19    O795      0.54837      .   S
    C211   O795      0.54837      .   S
    C301   O796      0.64544      .   S
    C453   O796      0.64544      .   S
    C301   O797      0.76308      .   S
    C293   O797      0.76308      .   S
    C297   O798      0.64544      .   S
    C449   O798      0.64544      .   S
    C297   O799      0.76308      .   S
    C289   O799      0.76308      .   S
    C303   O800      0.64545      .   S
    C455   O800      0.64545      .   S
    C303   O801      0.76300      .   S
    C295   O801      0.76300      .   S
    C299   O802      0.64545      .   S
    C451   O802      0.64545      .   S
    C299   O803      0.76300      .   S
    C291   O803      0.76300      .   S
    C153   O804      0.52392      .   S
    C353   O804      0.52392      .   S
    C157   O805      0.52392      .   S
    C357   O805      0.52392      .   S
    C159   O806      0.52377      .   S
    C359   O806      0.52377      .   S
    C155   O807      0.52377      .   S
    C355   O807      0.52377      .   S
    C337   O808      0.74690      .   S
    C209   O808      0.74690      .   S
    C337   O809      0.51927      .   S
    C49    O809      0.51927      .   S
    C337   O810      0.51931      .   S
    C193   O810      0.51931      .   S
    C341   O811      0.74690      .   S
    C213   O811      0.74690      .   S
    C341   O812      0.51927      .   S
    C53    O812      0.51927      .   S
    C341   O813      0.51931      .   S
    C197   O813      0.51931      .   S
    C339   O814      0.74690      .   S
    C211   O814      0.74690      .   S
    C339   O815      0.51933      .   S
    C51    O815      0.51933      .   S
    C339   O816      0.51925      .   S
    C195   O816      0.51925      .   S
    C343   O817      0.74690      .   S
    C215   O817      0.74690      .   S
    C343   O818      0.51936      .   S
    C55    O818      0.51936      .   S
    C343   O819      0.51926      .   S
    C199   O819      0.51926      .   S
    C25    O820      0.54973      .   S
    C209   O820      0.54973      .   S
    C27    O821      0.54986      .   S
    C211   O821      0.54986      .   S
    C31    O822      0.54986      .   S
    C215   O822      0.54986      .   S
    C29    O823      0.54986      .   S
    C213   O823      0.54986      .   S
    C209   O824      0.76429      .   S
    C217   O824      0.76429      .   S
    C213   O825      0.76428      .   S
    C221   O825      0.76428      .   S
    C211   O826      0.76433      .   S
    C219   O826      0.76433      .   S
    C215   O827      0.76433      .   S
    C223   O827      0.76433      .   S
    C129   O828      0.54842      .   S
    C289   O828      0.54842      .   S
    C133   O829      0.54842      .   S
    C293   O829      0.54842      .   S
    C131   O830      0.54845      .   S
    C291   O830      0.54845      .   S
    C135   O831      0.54845      .   S
    C295   O831      0.54845      .   S
    C357   O832      0.74631      .   S
    C293   O832      0.74631      .   S
    C357   O833      0.52380      .   S
    C61    O833      0.52380      .   S
    C357   O834      0.74633      .   S
    C229   O834      0.74633      .   S
    C353   O835      0.74631      .   S
    C289   O835      0.74631      .   S
    C353   O836      0.52380      .   S
    C57    O836      0.52380      .   S
    C353   O837      0.74633      .   S
    C225   O837      0.74633      .   S
    C355   O838      0.74633      .   S
    C291   O838      0.74633      .   S
    C355   O839      0.52380      .   S
    C59    O839      0.52380      .   S
    C355   O840      0.74637      .   S
    C227   O840      0.74637      .   S
    C359   O841      0.74633      .   S
    C295   O841      0.74633      .   S
    C359   O842      0.52380      .   S
    C63    O842      0.52380      .   S
    C359   O843      0.74637      .   S
    C231   O843      0.74637      .   S
    C289   O844      0.54888      .   S
    C137   O844      0.54888      .   S
    C293   O845      0.54888      .   S
    C141   O845      0.54888      .   S
    C291   O846      0.54899      .   S
    C139   O846      0.54899      .   S
    C295   O847      0.54899      .   S
    C143   O847      0.54899      .   S
    C399   O848      0.62308      .   S
    C239   O848      0.62308      .   S
    C395   O849      0.62308      .   S
    C235   O849      0.62308      .   S
    C393   O850      0.62314      .   S
    C233   O850      0.62314      .   S
    C397   O851      0.62314      .   S
    C237   O851      0.62314      .   S
    C45    O852      0.54894      .   S
    C229   O852      0.54894      .   S
    C41    O853      0.54895      .   S
    C225   O853      0.54895      .   S
    C47    O854      0.54894      .   S
    C231   O854      0.54894      .   S
    C43    O855      0.54894      .   S
    C227   O855      0.54894      .   S
    C217   O856      0.64391      .   S
    C371   O856      0.64391      .   S
    C217   O857      0.62211      .   S
    C377   O857      0.62211      .   S
    C221   O858      0.64391      .   S
    C375   O858      0.64391      .   S
    C221   O859      0.62211      .   S
    C381   O859      0.62211      .   S
    C219   O860      0.64405      .   S
    C369   O860      0.64405  1_545   S
    C219   O861      0.62209      .   S
    C379   O861      0.62209      .   S
    C223   O862      0.64405      .   S
    C373   O862      0.64405  1_545   S
    C223   O863      0.62209      .   S
    C383   O863      0.62209      .   S
    C225   O864      0.76302      .   S
    C233   O864      0.76302      .   S
    C225   O865      0.54843      .   S
    C33    O865      0.54843      .   S
    C229   O866      0.76302      .   S
    C237   O866      0.76302      .   S
    C229   O867      0.54843      .   S
    C37    O867      0.54843      .   S
    C227   O868      0.76303      .   S
    C235   O868      0.76303      .   S
    C227   O869      0.54839      .   S
    C35    O869      0.54839      .   S
    C231   O870      0.76303      .   S
    C239   O870      0.76303      .   S
    C231   O871      0.54839      .   S
    C39    O871      0.54839      .   S
    C375   O872      1.02152      .   S
    C7     O872      1.02152      .   S
    C371   O873      1.02153      .   S
    C3     O873      1.02153      .   S
    C369   O874      1.02147      .   S
    C1     O874      1.02147      .   S
    C373   O875      1.02147      .   S
    C5     O875      1.02147      .   S
    C237   O876      0.64515      .   S
    C389   O876      0.64515      .   S
    C233   O877      0.64515      .   S
    C385   O877      0.64515      .   S
    C239   O878      0.64552      .   S
    C391   O878      0.64552      .   S
    C235   O879      0.64551      .   S
    C387   O879      0.64551      .   S
    C389   O880      0.98255      .   S
    C1     O880      0.98255      .   S
    C385   O881      0.98241  1_455   S
    C5     O881      0.98241      .   S
    C391   O882      0.98240      .   S
    C3     O882      0.98240      .   S
    C387   O883      0.98227  1_455   S
    C7     O883      0.98227      .   S
    C7     O884      0.98219      .   S
    C417   O884      0.98219  1_455   S
    C7     O885      1.02145      .   S
    C405   O885      1.02145      .   S
    C3     O886      0.98233      .   S
    C421   O886      0.98233      .   S
    C3     O887      1.02145      .   S
    C401   O887      1.02145      .   S
    C1     O888      0.98246  1_545   S
    C423   O888      0.98246      .   S
    C1     O889      1.02131  1_545   S
    C403   O889      1.02131      .   S
    C5     O890      0.98231  1_545   S
    C419   O890      0.98231  1_455   S
    C5     O891      1.02131  1_545   S
    C407   O891      1.02131      .   S
    C419   O892      0.64557      .   S
    C267   O892      0.64557      .   S
    C423   O893      0.64549      .   S
    C271   O893      0.64549      .   S
    C421   O894      0.64503      .   S
    C269   O894      0.64503      .   S
    C417   O895      0.64503      .   S
    C265   O895      0.64503      .   S
    C81    O896      0.54846      .   S
    C257   O896      0.54846      .   S
    C85    O897      0.54785      .   S
    C261   O897      0.54785      .   S
    C83    O898      0.54849      .   S
    C259   O898      0.54849      .   S
    C87    O899      0.54849      .   S
    C263   O899      0.54849      .   S
    C411   O900      0.62219      .   S
    C251   O900      0.62219      .   S
    C415   O901      0.62207      .   S
    C255   O901      0.62207      .   S
    C413   O902      0.62209      .   S
    C253   O902      0.62209      .   S
    C409   O903      0.62209      .   S
    C249   O903      0.62209      .   S
    C265   O904      0.76292      .   S
    C257   O904      0.76292      .   S
    C265   O905      0.62296      .   S
    C425   O905      0.62296      .   S
    C269   O906      0.76300      .   S
    C261   O906      0.76300      .   S
    C269   O907      0.62297      .   S
    C429   O907      0.62297      .   S
    C271   O908      0.76299      .   S
    C263   O908      0.76299      .   S
    C271   O909      0.62316      .   S
    C431   O909      0.62316      .   S
    C267   O910      0.76299      .   S
    C259   O910      0.76299      .   S
    C267   O911      0.62316      .   S
    C427   O911      0.62316      .   S
    C401   O912      0.64393      .   S
    C251   O912      0.64393      .   S
    C405   O913      0.64393      .   S
    C255   O913      0.64393      .   S
    C403   O914      0.64414  1_565   S
    C249   O914      0.64414      .   S
    C407   O915      0.64414  1_565   S
    C253   O915      0.64414      .   S
    C185   O916      0.54896      .   S
    C321   O916      0.54896      .   S
    C189   O917      0.54896      .   S
    C325   O917      0.54896      .   S
    C191   O918      0.54912      .   S
    C327   O918      0.54912      .   S
    C187   O919      0.54903      .   S
    C323   O919      0.54903      .   S
    C261   O920      0.54899      .   S
    C93    O920      0.54899      .   S
    C261   O921      0.74654      .   S
    C365   O921      0.74654      .   S
    C257   O922      0.54893      .   S
    C89    O922      0.54893      .   S
    C257   O923      0.74610      .   S
    C361   O923      0.74610      .   S
    C259   O924      0.54894      .   S
    C91    O924      0.54894      .   S
    C259   O925      0.74628      .   S
    C363   O925      0.74628      .   S
    C263   O926      0.54893      .   S
    C95    O926      0.54893      .   S
    C263   O927      0.74628      .   S
    C367   O927      0.74628      .   S
    C255   O928      0.76431      .   S
    C247   O928      0.76431      .   S
    C251   O929      0.76432      .   S
    C243   O929      0.76432      .   S
    C253   O930      0.76425      .   S
    C245   O930      0.76425      .   S
    C249   O931      0.76425      .   S
    C241   O931      0.76425      .   S
    C105   O932      0.52380      .   S
    C361   O932      0.52380      .   S
    C109   O933      0.52381      .   S
    C365   O933      0.52381      .   S
    C107   O934      0.52378      .   S
    C363   O934      0.52378      .   S
    C111   O935      0.52378      .   S
    C367   O935      0.52378      .   S
    C151   O936      0.51930      .   S
    C351   O936      0.51930      .   S
    C147   O937      0.51930      .   S
    C347   O937      0.51930      .   S
    C149   O938      0.51924      .   S
    C349   O938      0.51924      .   S
    C145   O939      0.51924      .   S
    C345   O939      0.51924      .   S
    C325   O940      0.74625      .   S
    C365   O940      0.74625      .   S
    C325   O941      0.54844      .   S
    C181   O941      0.54844      .   S
    C325   O942      0.76302      .   S
    C333   O942      0.76302      .   S
    C321   O943      0.74624      .   S
    C361   O943      0.74624      .   S
    C321   O944      0.54844      .   S
    C177   O944      0.54844      .   S
    C321   O945      0.76302      .   S
    C329   O945      0.76302      .   S
    C323   O946      0.74632      .   S
    C363   O946      0.74632      .   S
    C323   O947      0.54841      .   S
    C179   O947      0.54841      .   S
    C323   O948      0.76316      .   S
    C331   O948      0.76316      .   S
    C327   O949      0.74629      .   S
    C367   O949      0.74629      .   S
    C327   O950      0.54843      .   S
    C183   O950      0.54843      .   S
    C327   O951      0.76250      .   S
    C335   O951      0.76250      .   S
    C365   O952      0.52405      .   S
    C205   O952      0.52405      .   S
    C361   O953      0.52405      .   S
    C201   O953      0.52405      .   S
    C367   O954      0.52375      .   S
    C207   O954      0.52375      .   S
    C363   O955      0.52375      .   S
    C203   O955      0.52375      .   S
    C97    O956      0.51924      .   S
    C345   O956      0.51924      .   S
    C101   O957      0.51924      .   S
    C349   O957      0.51924      .   S
    C103   O958      0.51923      .   S
    C351   O958      0.51923      .   S
    C99    O959      0.51923      .   S
    C347   O959      0.51923      .   S
    C247   O960      0.54986      .   S
    C79    O960      0.54986      .   S
    C247   O961      0.74688      .   S
    C351   O961      0.74688      .   S
    C247   O962      0.54837      .   S
    C71    O962      0.54837      .   S
    C243   O963      0.54996      .   S
    C75    O963      0.54996      .   S
    C243   O964      0.74689      .   S
    C347   O964      0.74689      .   S
    C243   O965      0.54836      .   S
    C67    O965      0.54836      .   S
    C245   O966      0.54986      .   S
    C77    O966      0.54986      .   S
    C245   O967      0.74689      .   S
    C349   O967      0.74689      .   S
    C245   O968      0.54838      .   S
    C69    O968      0.54838      .   S
    C241   O969      0.54986      .   S
    C73    O969      0.54986      .   S
    C241   O970      0.74688      .   S
    C345   O970      0.74688      .   S
    C241   O971      0.54838      .   S
    C65    O971      0.54838      .   S
    C351   O972      0.74699      .   S
    C279   O972      0.74699      .   S
    C347   O973      0.74699      .   S
    C275   O973      0.74699      .   S
    C345   O974      0.74689      .   S
    C273   O974      0.74689      .   S
    C349   O975      0.74689      .   S
    C277   O975      0.74689      .   S
    C443   O976      0.62245      .   S
    C283   O976      0.62245      .   S
    C441   O977      0.62202      .   S
    C281   O977      0.62202      .   S
    C447   O978      0.62210      .   S
    C287   O978      0.62210      .   S
    C447   O979      0.86250      .   S
    C15    O979      0.86250      .   S
    C445   O980      0.62202      .   S
    C285   O980      0.62202      .   S
    C485   O981      0.64547      .   S
    C333   O981      0.64547      .   S
    C485   O982      0.98227  1_655   S
    C8     O982      0.98227      .   S
    C481   O983      0.64547      .   S
    C329   O983      0.64547      .   S
    C481   O984      0.98240      .   S
    C12    O984      0.98240      .   S
    C487   O985      0.64529      .   S
    C335   O985      0.64529      .   S
    C483   O986      0.64547      .   S
    C331   O986      0.64547      .   S
    C483   O987      0.73158      .   S
    C15    O987      0.73158      .   S
    C329   O988      0.62314      .   S
    C489   O988      0.62314      .   S
    C333   O989      0.62314      .   S
    C493   O989      0.62314      .   S
    C335   O990      0.62379      .   S
    C495   O990      0.62379      .   S
    C331   O991      0.62312      .   S
    C491   O991      0.62312      .   S
    C285   O992      0.76430      .   S
    C277   O992      0.76430      .   S
    C281   O993      0.76429      .   S
    C273   O993      0.76429      .   S
    C283   O994      0.76430      .   S
    C275   O994      0.76430      .   S
    C287   O995      0.76430      .   S
    C279   O995      0.76430      .   S
    C273   O996      0.54839      .   S
    C113   O996      0.54839      .   S
    C273   O997      0.54988      .   S
    C121   O997      0.54988      .   S
    C275   O998      0.54836      .   S
    C115   O998      0.54836      .   S
    C275   O999      0.54987      .   S
    C123   O999      0.54987      .   S
    C277   O1000     0.54838      .   S
    C117   O1000     0.54838      .   S
    C277   O1001     0.54989      .   S
    C125   O1001     0.54989      .   S
    C279   O1002     0.54836      .   S
    C119   O1002     0.54836      .   S
    C279   O1003     0.54986      .   S
    C127   O1003     0.54986      .   S
    C465   O1004     1.02139      .   S
    C8     O1004     1.02139      .   S
    C469   O1005     1.02139      .   S
    C12    O1005     1.02139      .   S
