# CIF file generated by openbabel 2.4.90, see http://openbabel.sf.net
data_I
_chemical_name_common ''
_cell_length_a 18.597
_cell_length_b 22.63
_cell_length_c 16.545
_cell_angle_alpha 107.033
_cell_angle_beta 90.063
_cell_angle_gamma 114.039
_space_group_name_H-M_alt 'P 1'
_space_group_name_Hall 'P 1'
loop_
    _symmetry_equiv_pos_as_xyz
    x,y,z
loop_
    _atom_site_label
    _atom_site_type_symbol
    _atom_site_fract_x
    _atom_site_fract_y
    _atom_site_fract_z
    _atom_site_occupancy
    H0      H    0.46734   0.26745   0.46953   1.000
    H1      H    0.46733   0.76745   0.46953   1.000
    H2      H    0.96733   0.26744   0.46950   1.000
    H3      H    0.96732   0.76745   0.46953   1.000
    H4      H    0.36442   0.42964   0.41902   1.000
    H5      H    0.36441   0.92964   0.41903   1.000
    H6      H    0.86440   0.42964   0.41903   1.000
    H7      H    0.86440   0.92964   0.41900   1.000
    H8      H    0.44898   0.45962   0.55530   1.000
    H9      H    0.44897   0.95962   0.55530   1.000
    H10     H    0.94896   0.45961   0.55530   1.000
    H11     H    0.94896   0.95962   0.55530   1.000
    H12     H    0.38530   0.19290   0.10530   1.000
    H13     H    0.38530   0.69290   0.10533   1.000
    H14     H    0.88529   0.19289   0.10530   1.000
    H15     H    0.88528   0.69290   0.10534   1.000
    H16     H    0.27925   0.21708   0.12782   1.000
    H17     H    0.27925   0.71709   0.12782   1.000
    H18     H    0.77924   0.21708   0.12782   1.000
    H19     H    0.77923   0.71709   0.12782   1.000
    H20     H    0.18617   0.09808   0.11148   1.000
    H21     H    0.18616   0.59808   0.11148   1.000
    H22     H    0.68616   0.09808   0.11148   1.000
    H23     H    0.68615   0.59808   0.11148   1.000
    H24     H    0.23142   0.10413   0.21130   1.000
    H25     H    0.23142   0.60413   0.21130   1.000
    H26     H    0.73141   0.10413   0.21130   1.000
    H27     H    0.73140   0.60413   0.21130   1.000
    H28     H    0.17727   0.15304   0.20874   1.000
    H29     H    0.17726   0.65304   0.20874   1.000
    H30     H    0.67726   0.15303   0.20874   1.000
    H31     H    0.67725   0.65304   0.20874   1.000
    H32     H    0.19974   0.23325   0.03030   1.000
    H33     H    0.19973   0.73325   0.03030   1.000
    H34     H    0.69972   0.23325   0.03030   1.000
    H35     H    0.69972   0.73325   0.03030   1.000
    H36     H    0.43612   0.07112   0.08099   1.000
    H37     H    0.43612   0.57113   0.08099   1.000
    H38     H    0.93612   0.07112   0.08100   1.000
    H39     H    0.93611   0.57113   0.08100   1.000
    H40     H    0.49055   0.04118   0.94462   1.000
    H41     H    0.49054   0.54119   0.94462   1.000
    H42     H    0.99054   0.04118   0.94462   1.000
    H43     H    0.99053   0.54118   0.94462   1.000
    H44     H    0.19311   0.30791   0.39404   1.000
    H45     H    0.19310   0.80792   0.39404   1.000
    H46     H    0.69310   0.30791   0.39404   1.000
    H47     H    0.69309   0.80791   0.39404   1.000
    H48     H    0.06291   0.28373   0.37237   1.000
    H49     H    0.06290   0.78373   0.37237   1.000
    H50     H    0.56289   0.28372   0.37237   1.000
    H51     H    0.56289   0.78373   0.37237   1.000
    H52     H    0.08767   0.40269   0.38873   1.000
    H53     H    0.08766   0.90269   0.38873   1.000
    H54     H    0.58766   0.40269   0.38874   1.000
    H55     H    0.58765   0.90269   0.38870   1.000
    H56     H    0.12638   0.39660   0.28872   1.000
    H57     H    0.12637   0.89660   0.28872   1.000
    H58     H    0.62637   0.39660   0.28870   1.000
    H59     H    0.62636   0.89661   0.28872   1.000
    H60     H    0.02383   0.34773   0.29164   1.000
    H61     H    0.02382   0.84773   0.29164   1.000
    H62     H    0.52382   0.34773   0.29165   1.000
    H63     H    0.52381   0.84774   0.29165   1.000
    H64     H    0.03266   0.23258   0.53050   1.000
    H65     H    0.03265   0.73259   0.53000   1.000
    H66     H    0.53265   0.23259   0.53049   1.000
    H67     H    0.53264   0.73259   0.53050   1.000
    C68     C    0.93308   0.91072   0.50578   1.000
    C69     C    0.29329   0.19052   0.16723   1.000
    C70     C    0.29329   0.69053   0.16723   1.000
    C71     C    0.79328   0.19052   0.16723   1.000
    H72     H    0.13558   0.07039   0.58099   1.000
    H73     H    0.13557   0.57039   0.58100   1.000
    H74     H    0.63556   0.07039   0.58100   1.000
    H75     H    0.63556   0.57040   0.58000   1.000
    H76     H    0.05102   0.04041   0.44472   1.000
    H77     H    0.05101   0.54042   0.44472   1.000
    H78     H    0.55101   0.04041   0.44472   1.000
    H79     H    0.55100   0.54042   0.44472   1.000
    H80     H    0.11470   0.30714   0.89460   1.000
    H81     H    0.11469   0.80715   0.89468   1.000
    H82     H    0.61469   0.30715   0.89468   1.000
    H83     H    0.61468   0.80715   0.89468   1.000
    H84     H    0.22075   0.28295   0.87220   1.000
    H85     H    0.22074   0.78295   0.87220   1.000
    H86     H    0.72073   0.28295   0.87220   1.000
    H87     H    0.72073   0.78296   0.87220   1.000
    H88     H    0.31383   0.40195   0.88854   1.000
    H89     H    0.31383   0.90195   0.88853   1.000
    H90     H    0.81383   0.40195   0.88853   1.000
    H91     H    0.81382   0.90196   0.88854   1.000
    H92     H    0.26858   0.39590   0.78871   1.000
    H93     H    0.26857   0.89590   0.78871   1.000
    H94     H    0.76857   0.39590   0.78871   1.000
    H95     H    0.76856   0.89591   0.78871   1.000
    H96     H    0.32273   0.34699   0.79127   1.000
    H97     H    0.32273   0.84699   0.79127   1.000
    H98     H    0.82272   0.34699   0.79127   1.000
    H99     H    0.82271   0.84700   0.79127   1.000
    C100    C    0.03797   0.13471   0.47904   1.000
    C101    C    0.03796   0.63471   0.47904   1.000
    C102    C    0.53795   0.13471   0.47905   1.000
    C103    C    0.53796   0.63472   0.47904   1.000
    C104    C    0.11415   0.10587   0.56987   1.000
    H105    H    0.30026   0.26679   0.96972   1.000
    H106    H    0.30026   0.76679   0.96972   1.000
    H107    H    0.80025   0.26678   0.96972   1.000
    H108    H    0.80024   0.76679   0.96972   1.000
    H109    H    0.06387   0.42890   0.91903   1.000
    H110    H    0.06387   0.92891   0.91900   1.000
    H111    H    0.56386   0.42891   0.91902   1.000
    H112    H    0.56385   0.92891   0.91902   1.000
    H113    H    0.00945   0.45885   0.05540   1.000
    H114    H    0.00944   0.95885   0.05540   1.000
    H115    H    0.50943   0.45885   0.05540   1.000
    H116    H    0.50943   0.95886   0.05540   1.000
    H117    H    0.30689   0.19212   0.60598   1.000
    H118    H    0.30688   0.69212   0.60598   1.000
    H119    H    0.80688   0.19212   0.60598   1.000
    H120    H    0.80687   0.69213   0.60598   1.000
    H121    H    0.43709   0.21630   0.62765   1.000
    H122    H    0.43708   0.71631   0.62765   1.000
    H123    H    0.93708   0.21630   0.62765   1.000
    H124    H    0.93707   0.71631   0.62765   1.000
    H125    H    0.41233   0.09734   0.61129   1.000
    H126    H    0.41232   0.59735   0.61129   1.000
    H127    H    0.91231   0.09734   0.61128   1.000
    H128    H    0.91231   0.59735   0.61128   1.000
    H129    H    0.37362   0.10343   0.71130   1.000
    H130    H    0.37361   0.60343   0.71130   1.000
    H131    H    0.87360   0.10343   0.71129   1.000
    H132    H    0.87360   0.60343   0.71129   1.000
    H133    H    0.47617   0.15230   0.70838   1.000
    H134    H    0.47616   0.65230   0.70838   1.000
    H135    H    0.97615   0.15229   0.70837   1.000
    H136    H    0.97615   0.65230   0.70837   1.000
    C137    C    0.44531   0.30255   0.45858   1.000
    C138    C    0.44530   0.80256   0.45858   1.000
    C139    C    0.94529   0.30255   0.45858   1.000
    C140    C    0.94529   0.80256   0.45858   1.000
    C141    C    0.46202   0.36532   0.52098   1.000
    C142    C    0.46202   0.86532   0.52098   1.000
    C143    C    0.96201   0.36532   0.52098   1.000
    C144    C    0.96200   0.86532   0.52098   1.000
    C145    C    0.38585   0.39416   0.43015   1.000
    C146    C    0.38584   0.89416   0.43015   1.000
    C147    C    0.88584   0.39416   0.43015   1.000
    C148    C    0.88584   0.89416   0.43015   1.000
    C149    C    0.40036   0.28682   0.38147   1.000
    C150    C    0.40035   0.78683   0.38147   1.000
    C151    C    0.90035   0.28682   0.38140   1.000
    C152    C    0.90034   0.78682   0.38147   1.000
    C153    C    0.33409   0.24187   0.25340   1.000
    C154    C    0.33409   0.74187   0.25340   1.000
    C155    C    0.83408   0.24186   0.25340   1.000
    C156    C    0.83407   0.74187   0.25340   1.000
    C157    C    0.36883   0.33120   0.36766   1.000
    C158    C    0.36882   0.83120   0.36766   1.000
    C159    C    0.86882   0.33119   0.36766   1.000
    C160    C    0.86881   0.83120   0.36766   1.000
    C161    C    0.43310   0.41072   0.50578   1.000
    C162    C    0.43309   0.91072   0.50579   1.000
    C163    C    0.93308   0.41071   0.50579   1.000
    O164    O    0.15619   0.34028   0.87421   1.000
    C165    C    0.79327   0.69053   0.16723   1.000
    C166    C    0.21722   0.13263   0.17521   1.000
    C167    C    0.21721   0.63263   0.17521   1.000
    C168    C    0.71721   0.13263   0.17521   1.000
    C169    C    0.71720   0.63263   0.17521   1.000
    C170    C    0.14291   0.19816   0.04126   1.000
    C171    C    0.14290   0.69816   0.04126   1.000
    C172    C    0.64290   0.19816   0.04126   1.000
    C173    C    0.64289   0.69817   0.04126   1.000
    C174    C    0.09724   0.13541   0.97890   1.000
    C175    C    0.09723   0.63541   0.97890   1.000
    C176    C    0.59722   0.13541   0.97893   1.000
    C177    C    0.59722   0.63541   0.97893   1.000
    C178    C    0.49270   0.10658   0.06982   1.000
    C179    C    0.49269   0.60659   0.06982   1.000
    C180    C    0.99269   0.10658   0.06982   1.000
    C181    C    0.99268   0.60659   0.06982   1.000
    C182    C    0.11376   0.21390   0.11841   1.000
    C183    C    0.11375   0.71390   0.11841   1.000
    C184    C    0.61375   0.21390   0.11841   1.000
    C185    C    0.61374   0.71390   0.11841   1.000
    C186    C    0.09243   0.25884   0.24653   1.000
    C187    C    0.09243   0.75885   0.24653   1.000
    C188    C    0.59242   0.25884   0.24653   1.000
    C189    C    0.59242   0.75885   0.24653   1.000
    C190    C    0.03831   0.16953   0.13231   1.000
    C191    C    0.03830   0.66953   0.13231   1.000
    C192    C    0.53830   0.16952   0.13231   1.000
    C193    C    0.53829   0.66953   0.13231   1.000
    C194    C    0.02332   0.09006   0.99416   1.000
    C195    C    0.02331   0.59006   0.99416   1.000
    C196    C    0.52330   0.09006   0.99416   1.000
    C197    C    0.52330   0.59006   0.99416   1.000
    C198    C    0.10295   0.31022   0.33273   1.000
    C199    C    0.10294   0.81022   0.33273   1.000
    C200    C    0.60294   0.31022   0.33274   1.000
    C201    C    0.60293   0.81022   0.33274   1.000
    C202    C    0.08415   0.36812   0.32495   1.000
    C203    C    0.08415   0.86812   0.32495   1.000
    C204    C    0.58414   0.36811   0.32495   1.000
    C205    C    0.58414   0.86812   0.32495   1.000
    C206    C    0.05469   0.19748   0.54144   1.000
    C207    C    0.05469   0.69748   0.54144   1.000
    C208    C    0.55468   0.19748   0.54144   1.000
    C209    C    0.55467   0.69748   0.54144   1.000
    C210    C    0.11414   0.60587   0.56987   1.000
    C211    C    0.61413   0.10587   0.56987   1.000
    C212    C    0.61413   0.60588   0.56987   1.000
    C213    C    0.09964   0.21321   0.61856   1.000
    C214    C    0.09963   0.71321   0.61856   1.000
    C215    C    0.59962   0.21321   0.61856   1.000
    C216    C    0.59962   0.71322   0.61856   1.000
    C217    C    0.16591   0.25816   0.74662   1.000
    C218    C    0.16590   0.75817   0.74662   1.000
    C219    C    0.66590   0.25817   0.74662   1.000
    C220    C    0.66589   0.75817   0.74662   1.000
    C221    C    0.13117   0.16883   0.63236   1.000
    C222    C    0.13116   0.66884   0.63236   1.000
    C223    C    0.63116   0.16884   0.63236   1.000
    C224    C    0.63115   0.66884   0.63230   1.000
    C225    C    0.06690   0.08932   0.49424   1.000
    C226    C    0.06689   0.58932   0.49424   1.000
    C227    C    0.56689   0.08932   0.49420   1.000
    C228    C    0.56688   0.58932   0.49424   1.000
    C229    C    0.20671   0.30951   0.83279   1.000
    C230    C    0.20670   0.80951   0.83279   1.000
    C231    C    0.70669   0.30951   0.83270   1.000
    C232    C    0.70669   0.80952   0.83279   1.000
    C233    C    0.28278   0.36740   0.82480   1.000
    C234    C    0.28278   0.86740   0.82480   1.000
    C235    C    0.78277   0.36740   0.82480   1.000
    C236    C    0.78277   0.86741   0.82480   1.000
    C237    C    0.35709   0.30187   0.95876   1.000
    C238    C    0.35708   0.80187   0.95876   1.000
    C239    C    0.85707   0.30187   0.95876   1.000
    C240    C    0.85707   0.80187   0.95876   1.000
    C241    C    0.40276   0.36463   0.02109   1.000
    C242    C    0.40276   0.86463   0.02100   1.000
    C243    C    0.90275   0.36462   0.02109   1.000
    C244    C    0.90275   0.86463   0.02109   1.000
    C245    C    0.00730   0.39344   0.93020   1.000
    C246    C    0.00730   0.89345   0.93020   1.000
    C247    C    0.50729   0.39345   0.93020   1.000
    C248    C    0.50728   0.89345   0.93020   1.000
    C249    C    0.38624   0.28613   0.88161   1.000
    C250    C    0.38623   0.78614   0.88161   1.000
    C251    C    0.88622   0.28613   0.88161   1.000
    C252    C    0.88622   0.78614   0.88161   1.000
    C253    C    0.40757   0.24119   0.75349   1.000
    C254    C    0.40756   0.74119   0.75349   1.000
    C255    C    0.90755   0.24119   0.75349   1.000
    C256    C    0.90755   0.74119   0.75349   1.000
    C257    C    0.46169   0.33051   0.86771   1.000
    C258    C    0.46168   0.83051   0.86771   1.000
    C259    C    0.96167   0.33050   0.86771   1.000
    C260    C    0.96167   0.83051   0.86771   1.000
    C261    C    0.47668   0.40998   0.00586   1.000
    C262    C    0.47667   0.90998   0.00586   1.000
    C263    C    0.97667   0.40997   0.00586   1.000
    C264    C    0.97666   0.90998   0.00586   1.000
    C265    C    0.39705   0.18981   0.66729   1.000
    C266    C    0.39704   0.68981   0.66729   1.000
    C267    C    0.89703   0.18981   0.66729   1.000
    C268    C    0.89703   0.68982   0.66729   1.000
    C269    C    0.41585   0.13191   0.67507   1.000
    C270    C    0.41584   0.63192   0.67507   1.000
    C271    C    0.91583   0.13191   0.67507   1.000
    C272    C    0.91582   0.63192   0.67507   1.000
    N273    N    0.37850   0.23103   0.30727   1.000
    N274    N    0.37849   0.73104   0.30727   1.000
    N275    N    0.87848   0.23103   0.30727   1.000
    N276    N    0.87848   0.73104   0.30727   1.000
    N277    N    0.32607   0.30101   0.28603   1.000
    N278    N    0.32606   0.80101   0.28600   1.000
    N279    N    0.82605   0.30100   0.28603   1.000
    N280    N    0.82605   0.80101   0.28600   1.000
    N281    N    0.14739   0.26969   0.19250   1.000
    N282    N    0.14738   0.76969   0.19250   1.000
    N283    N    0.64738   0.26969   0.19259   1.000
    N284    N    0.64737   0.76970   0.19259   1.000
    N285    N    0.02573   0.19968   0.21400   1.000
    N286    N    0.02572   0.69968   0.21400   1.000
    N287    N    0.52571   0.19968   0.21400   1.000
    N288    N    0.52571   0.69969   0.21400   1.000
    N289    N    0.12150   0.26899   0.69275   1.000
    N290    N    0.12150   0.76900   0.69275   1.000
    N291    N    0.62149   0.26900   0.69275   1.000
    N292    N    0.62148   0.76900   0.69275   1.000
    N293    N    0.17393   0.19902   0.71399   1.000
    N294    N    0.17393   0.69903   0.71399   1.000
    N295    N    0.67392   0.19903   0.71399   1.000
    N296    N    0.67391   0.69903   0.71399   1.000
    N297    N    0.35261   0.23034   0.80744   1.000
    N298    N    0.35260   0.73034   0.80744   1.000
    N299    N    0.85259   0.23034   0.80744   1.000
    N300    N    0.85259   0.73035   0.80744   1.000
    N301    N    0.47427   0.30035   0.78602   1.000
    N302    N    0.47427   0.80035   0.78602   1.000
    N303    N    0.97426   0.30035   0.78602   1.000
    N304    N    0.97426   0.80035   0.78602   1.000
    O305    O    0.34381   0.15976   0.12580   1.000
    O306    O    0.34381   0.65976   0.12580   1.000
    O307    O    0.84380   0.15975   0.12580   1.000
    O308    O    0.84379   0.65975   0.12581   1.000
    O309    O    0.18422   0.34103   0.37372   1.000
    O310    O    0.18421   0.84103   0.37372   1.000
    O311    O    0.68421   0.34103   0.37372   1.000
    O312    O    0.68420   0.84103   0.37372   1.000
    O313    O    0.15618   0.84029   0.87421   1.000
    O314    O    0.65618   0.34029   0.87421   1.000
    O315    O    0.65617   0.84029   0.87421   1.000
    O316    O    0.31578   0.15900   0.62630   1.000
    O317    O    0.31577   0.65900   0.62630   1.000
    O318    O    0.81576   0.15900   0.62630   1.000
    O319    O    0.81576   0.65901   0.62630   1.000
loop_
    _geom_bond_atom_site_label_1
    _geom_bond_atom_site_label_2
    _geom_bond_distance
    _geom_bond_site_symmetry_2
    _ccdc_geom_bond_type
    C261   C241      1.41749      .   S
    C261   H115      1.08863      .   S
    C261   C247      1.38983  1_554   S
    C262   C242      1.41690      .   S
    C262   H116      1.08862      .   S
    C262   C248      1.38984  1_554   S
    C263   C243      1.41752      .   S
    C263   H113      1.08869  1_655   S
    C263   C245      1.39006  1_654   S
    C264   C244      1.41749      .   S
    C264   H114      1.08869  1_655   S
    C264   C246      1.39007  1_654   S
    C242   C238      1.39903  1_554   S
    C244   C240      1.39967  1_554   S
    C243   C239      1.39969  1_554   S
    C241   C237      1.39969  1_554   S
    H32    C170      1.08684      .   S
    H33    C171      1.08684      .   S
    H34    C172      1.08684      .   S
    H35    C173      1.08683      .   S
    C170   C182      1.39375      .   S
    C170   C174      1.39988  1_554   S
    C173   C185      1.39374      .   S
    C173   C177      1.39967  1_554   S
    C172   C184      1.39375      .   S
    C172   C176      1.39966  1_554   S
    C171   C183      1.39375      .   S
    C171   C175      1.39988  1_554   S
    C178   H36       1.08831      .   S
    C178   C192      1.40289      .   S
    C178   C196      1.38982  1_554   S
    C179   H37       1.08831      .   S
    C179   C193      1.40290      .   S
    C179   C197      1.38980  1_554   S
    C180   H38       1.08836      .   S
    C180   C190      1.40299  1_655   S
    C180   C194      1.39007  1_654   S
    C181   H39       1.08835      .   S
    C181   C191      1.40300  1_655   S
    C181   C195      1.39008  1_654   S
    H12    O305      0.97523      .   S
    H14    O307      0.97523      .   S
    H13    O306      0.97494      .   S
    H15    O308      0.97495      .   S
    H23    C169      1.09744      .   S
    H22    C168      1.09744      .   S
    H20    C166      1.09744      .   S
    H21    C167      1.09744      .   S
    C183   C191      1.42063      .   S
    C183   N282      1.39145      .   S
    C185   C193      1.42064      .   S
    C185   N284      1.39235      .   S
    C184   C192      1.42064      .   S
    C184   N283      1.39235      .   S
    C182   C190      1.42063      .   S
    C182   N281      1.39144      .   S
    O307   C71       1.44643      .   S
    O306   C70       1.44642      .   S
    O305   C69       1.44642      .   S
    O308   C165      1.44637      .   S
    H18    C71       1.10077      .   S
    H17    C70       1.10078      .   S
    H16    C69       1.10078      .   S
    H19    C165      1.10076      .   S
    C190   N285      1.39199      .   S
    C191   N286      1.39200      .   S
    C192   N287      1.39199      .   S
    C193   N288      1.39198      .   S
    C69    C166      1.52551      .   S
    C69    C153      1.50571      .   S
    C70    C167      1.52551      .   S
    C70    C154      1.50570      .   S
    C71    C168      1.52551      .   S
    C71    C155      1.50570      .   S
    C165   C169      1.52552      .   S
    C165   C156      1.50571      .   S
    C169   H31       1.09695      .   S
    C169   H27       1.09837      .   S
    C166   H28       1.09695      .   S
    C166   H24       1.09838      .   S
    C167   H29       1.09696      .   S
    C167   H25       1.09838      .   S
    C168   H30       1.09694      .   S
    C168   H26       1.09838      .   S
    N282   C187      1.35283      .   S
    N281   C186      1.35282      .   S
    N283   C188      1.35177      .   S
    N284   C189      1.35175      .   S
    N285   C186      1.35807      .   S
    N287   C188      1.35808      .   S
    N288   C189      1.35806      .   S
    N286   C187      1.35806      .   S
    C186   C198      1.50555      .   S
    C187   C199      1.50553      .   S
    C188   C200      1.50566      .   S
    C189   C201      1.50565      .   S
    C153   N277      1.35814      .   S
    C153   N273      1.35193      .   S
    C154   N278      1.35810      .   S
    C154   N274      1.35191      .   S
    C155   N279      1.35815      .   S
    C155   N275      1.35191      .   S
    C156   N280      1.35811      .   S
    C156   N276      1.35191      .   S
    N278   C158      1.39240      .   S
    N280   C160      1.39242      .   S
    N277   C157      1.39201      .   S
    N279   C159      1.39200      .   S
    H58    C204      1.09861      .   S
    H59    C205      1.09839      .   S
    H56    C202      1.09838      .   S
    H57    C203      1.09838      .   S
    H61    C203      1.09692      .   S
    H60    C202      1.09692      .   S
    H62    C204      1.09685      .   S
    H63    C205      1.09686      .   S
    N273   C149      1.39245      .   S
    N274   C150      1.39246      .   S
    N275   C151      1.39175      .   S
    N276   C152      1.39245      .   S
    C205   C201      1.52563      .   S
    C205   H55       1.09709      .   S
    C203   C199      1.52558      .   S
    C203   H53       1.09746      .   S
    C204   C200      1.52562      .   S
    C204   H54       1.09759      .   S
    C202   C198      1.52556      .   S
    C202   H52       1.09746      .   S
    C198   H48       1.10082      .   S
    C198   O309      1.44654      .   S
    C199   H49       1.10082      .   S
    C199   O310      1.44654      .   S
    C201   H51       1.10071      .   S
    C201   O312      1.44648      .   S
    C200   H50       1.10071      .   S
    C200   O311      1.44649      .   S
    C158   C150      1.42069      .   S
    C158   C146      1.40293      .   S
    C160   C152      1.42069      .   S
    C160   C148      1.40293      .   S
    C159   C151      1.42026      .   S
    C159   C147      1.40293      .   S
    C157   C149      1.42068      .   S
    C157   C145      1.40293      .   S
    O311   H46       0.97496      .   S
    O312   H47       0.97495      .   S
    O310   H45       0.97492      .   S
    O309   H44       0.97493      .   S
    C151   C139      1.39459      .   S
    C152   C140      1.39364      .   S
    C150   C138      1.39361      .   S
    C149   C137      1.39363      .   S
    H7     C148      1.08847      .   S
    H4     C145      1.08833      .   S
    H5     C146      1.08828      .   S
    H6     C147      1.08827      .   S
    C145   C161      1.39031      .   S
    C148   C68       1.39032      .   S
    C147   C163      1.39043      .   S
    C146   C162      1.39043      .   S
    H78    C227      1.08839      .   S
    H76    C225      1.08867      .   S
    H77    C226      1.08868      .   S
    H79    C228      1.08867      .   S
    C140   H3        1.08684      .   S
    C140   C144      1.40015      .   S
    C139   H2        1.08668      .   S
    C139   C143      1.40017      .   S
    C138   H1        1.08686      .   S
    C138   C142      1.40017      .   S
    C137   H0        1.08684      .   S
    C137   C141      1.40015      .   S
    C103   C228      1.41749      .   S
    C103   C209      1.40016      .   S
    C100   C225      1.41748      .   S
    C100   C206      1.40016      .   S
    C101   C226      1.41749      .   S
    C101   C207      1.40020      .   S
    C102   C227      1.41722      .   S
    C102   C208      1.40016      .   S
    C227   C211      1.39080      .   S
    C225   C104      1.39031      .   S
    C226   C210      1.39029      .   S
    C228   C212      1.39031      .   S
    C68    C144      1.41748      .   S
    C68    H11       1.08866      .   S
    C161   C141      1.41749      .   S
    C161   H8        1.08866      .   S
    C162   C142      1.41745      .   S
    C162   H9        1.08859      .   S
    C163   C143      1.41744      .   S
    C163   H10       1.08859      .   S
    H65    C207      1.08995      .   S
    H66    C208      1.08686      .   S
    H67    C209      1.08679      .   S
    H64    C206      1.08681      .   S
    C207   C214      1.39376      .   S
    C206   C213      1.39376      .   S
    C209   C216      1.39378      .   S
    C208   C215      1.39372      .   S
    C210   H73       1.08835      .   S
    C210   C222      1.40294      .   S
    C211   H74       1.08836      .   S
    C211   C223      1.40294      .   S
    C212   H75       1.08209      .   S
    C212   C224      1.40249      .   S
    C104   H72       1.08829      .   S
    C104   C221      1.40292      .   S
    H117   O316      0.97494      .   S
    H118   O317      0.97496      .   S
    H119   O318      0.97498      .   S
    H120   O319      0.97495      .   S
    H127   C271      1.09757      .   S
    H128   C272      1.09758      .   S
    H126   C270      1.09745      .   S
    H125   C269      1.09746      .   S
    C216   C224      1.42025      .   S
    C216   N292      1.39236      .   S
    C215   C223      1.42064      .   S
    C215   N291      1.39240      .   S
    C214   C222      1.42063      .   S
    C214   N290      1.39237      .   S
    C213   C221      1.42063      .   S
    C213   N289      1.39236      .   S
    O319   C268      1.44653      .   S
    O316   C265      1.44652      .   S
    O317   C266      1.44654      .   S
    O318   C267      1.44652      .   S
    H124   C268      1.10084      .   S
    H122   C266      1.10082      .   S
    H121   C265      1.10082      .   S
    H123   C267      1.10084      .   S
    C224   N296      1.39283      .   S
    C221   N293      1.39201      .   S
    C222   N294      1.39201      .   S
    C223   N295      1.39198      .   S
    C268   C272      1.52557      .   S
    C268   C256      1.50553      .   S
    C265   C269      1.52557      .   S
    C265   C253      1.50553      .   S
    C266   C270      1.52557      .   S
    C266   C254      1.50555      .   S
    C267   C271      1.52559      .   S
    C267   C255      1.50552      .   S
    C269   H133      1.09691      .   S
    C269   H129      1.09840      .   S
    C272   H136      1.09685      .   S
    C272   H132      1.09829      .   S
    C271   H135      1.09687      .   S
    C271   H131      1.09827      .   S
    C270   H134      1.09691      .   S
    C270   H130      1.09840      .   S
    N290   C218      1.35191      .   S
    N289   C217      1.35192      .   S
    N291   C219      1.35192      .   S
    N292   C220      1.35191      .   S
    N294   C218      1.35815      .   S
    N295   C219      1.35815      .   S
    N293   C217      1.35815      .   S
    N296   C220      1.35815      .   S
    C217   C229      1.50572      .   S
    C218   C230      1.50573      .   S
    C219   C231      1.50465      .   S
    C220   C232      1.50573      .   S
    C255   N303      1.35807      .   S
    C255   N299      1.35187      .   S
    C254   N302      1.35807      .   S
    C254   N298      1.35187      .   S
    C253   N301      1.35807      .   S
    C253   N297      1.35188      .   S
    C256   N304      1.35806      .   S
    C256   N300      1.35188      .   S
    N301   C257      1.39200      .   S
    N302   C258      1.39200      .   S
    N304   C260      1.39200      .   S
    N303   C259      1.39198      .   S
    H92    C233      1.09834      .   S
    H95    C236      1.09832      .   S
    H94    C235      1.09834      .   S
    H93    C234      1.09834      .   S
    H96    C233      1.09698      .   S
    H99    C236      1.09697      .   S
    H98    C235      1.09695      .   S
    H97    C234      1.09694      .   S
    N297   C249      1.39227      .   S
    N298   C250      1.39227      .   S
    N299   C251      1.39227      .   S
    N300   C252      1.39226      .   S
    C236   C232      1.52555      .   S
    C236   H91       1.09758      .   S
    C235   C231      1.52503      .   S
    C235   H90       1.09747      .   S
    C233   C229      1.52555      .   S
    C233   H88       1.09758      .   S
    C234   C230      1.52554      .   S
    C234   H89       1.09746      .   S
    C231   H86       1.10184      .   S
    C231   O314      1.44690      .   S
    C232   H87       1.10072      .   S
    C232   O315      1.44640      .   S
    C230   H85       1.10072      .   S
    C230   O313      1.44640      .   S
    C229   H84       1.10071      .   S
    C229   O164      1.44640      .   S
    C257   C249      1.42064      .   S
    C257   C247      1.40292      .   S
    C258   C250      1.42063      .   S
    C258   C248      1.40292      .   S
    C259   C251      1.42064      .   S
    C259   C245      1.40300  1_655   S
    C260   C252      1.42064      .   S
    C260   C246      1.40298  1_655   S
    O315   H83       0.97487      .   S
    O314   H82       0.97486      .   S
    O313   H81       0.97487      .   S
    O164   H80       0.97413      .   S
    C250   C238      1.39375      .   S
    C249   C237      1.39375      .   S
    C251   C239      1.39373      .   S
    C252   C240      1.39374      .   S
    H110   C246      1.08849      .   S
    H111   C247      1.08834      .   S
    H112   C248      1.08834      .   S
    H109   C245      1.08830      .   S
    H42    C194      1.08868  1_655   S
    H40    C196      1.08861      .   S
    H43    C195      1.08869  1_655   S
    H41    C197      1.08861      .   S
    C240   H108      1.08683      .   S
    C239   H107      1.08683      .   S
    C238   H106      1.08682      .   S
    C237   H105      1.08682      .   S
    C175   C195      1.41767      .   S
    C174   C194      1.41768      .   S
    C177   C197      1.41751      .   S
    C176   C196      1.41750      .   S
