# CIF file generated by openbabel 2.4.90, see http://openbabel.sf.net
data_I
_chemical_name_common ''
_cell_length_a 18.597
_cell_length_b 22.63
_cell_length_c 16.545
_cell_angle_alpha 107.033
_cell_angle_beta 90.063
_cell_angle_gamma 114.039
_space_group_name_H-M_alt 'P 1'
_space_group_name_Hall 'P 1'
loop_
    _symmetry_equiv_pos_as_xyz
    x,y,z
loop_
    _atom_site_label
    _atom_site_type_symbol
    _atom_site_fract_x
    _atom_site_fract_y
    _atom_site_fract_z
    _atom_site_occupancy
    C0      C    0.01247   0.38495   0.60336   1.000
    C1      C    0.01246   0.88495   0.60336   1.000
    C2      C    0.51245   0.38495   0.60336   1.000
    C3      C    0.51245   0.88496   0.60336   1.000
    C4      C    0.12800   0.11561   0.89658   1.000
    C5      C    0.12799   0.61562   0.89658   1.000
    C6      C    0.62799   0.11561   0.89658   1.000
    C7      C    0.62799   0.61562   0.89658   1.000
    C8      C    0.48751   0.11508   0.39667   1.000
    C9      C    0.48752   0.61508   0.39660   1.000
    C10     C    0.98751   0.11508   0.39666   1.000
    C11     C    0.98750   0.61508   0.39667   1.000
    C12     C    0.37200   0.38442   0.10344   1.000
    C13     C    0.37199   0.88443   0.10344   1.000
    C14     C    0.87198   0.38442   0.10344   1.000
    C15     C    0.87198   0.88443   0.10344   1.000
