# CIF file generated by openbabel 2.4.90, see http://openbabel.sf.net
data_I
_chemical_name_common ''
_cell_length_a 18.597
_cell_length_b 22.63
_cell_length_c 16.545
_cell_angle_alpha 107.033
_cell_angle_beta 90.063
_cell_angle_gamma 114.039
_space_group_name_H-M_alt 'P 1'
_space_group_name_Hall 'P 1'
loop_
    _symmetry_equiv_pos_as_xyz
    x,y,z
loop_
    _atom_site_label
    _atom_site_type_symbol
    _atom_site_fract_x
    _atom_site_fract_y
    _atom_site_fract_z
    _atom_site_occupancy
    Zr0     Zr   0.07268   0.33590   0.72932   1.000
    Zr1     Zr   0.07267   0.83591   0.72932   1.000
    Zr2     Zr   0.57267   0.33591   0.72932   1.000
    Zr3     Zr   0.57266   0.83591   0.72932   1.000
    Zr4     Zr   0.23741   0.16365   0.77075   1.000
    Zr5     Zr   0.23740   0.66365   0.77075   1.000
    Zr6     Zr   0.73739   0.16365   0.77075   1.000
    Zr7     Zr   0.73739   0.66365   0.77075   1.000
    Zr8     Zr   0.42732   0.16413   0.27070   1.000
    Zr9     Zr   0.42731   0.66413   0.27070   1.000
    Zr10    Zr   0.92731   0.16413   0.27070   1.000
    Zr11    Zr   0.92730   0.66413   0.27070   1.000
    Zr12    Zr   0.26259   0.33638   0.22927   1.000
    Zr13    Zr   0.26259   0.83638   0.22927   1.000
    Zr14    Zr   0.76258   0.33638   0.22927   1.000
    Zr15    Zr   0.76258   0.83638   0.22927   1.000
    Zr16    Zr   0.12467   0.00006   0.74999   1.000
    Zr17    Zr   0.12466   0.50007   0.74999   1.000
    Zr18    Zr   0.62465   0.00007   0.74999   1.000
    Zr19    Zr   0.62465   0.50007   0.74999   1.000
    Zr20    Zr   0.37533   0.99997   0.25000   1.000
    Zr21    Zr   0.37533   0.49998   0.25000   1.000
    Zr22    Zr   0.87532   0.99997   0.25000   1.000
    Zr23    Zr   0.87532   0.49997   0.25000   1.000
    Zr24    Zr   0.17098   0.44181   0.83808   1.000
    Zr25    Zr   0.17098   0.94182   0.83808   1.000
    Zr26    Zr   0.67097   0.44182   0.83808   1.000
    Zr27    Zr   0.67096   0.94182   0.83808   1.000
    Zr28    Zr   0.22981   0.05732   0.66236   1.000
    Zr29    Zr   0.22980   0.55732   0.66236   1.000
    Zr30    Zr   0.72979   0.05732   0.66236   1.000
    Zr31    Zr   0.72979   0.55732   0.66236   1.000
    Zr32    Zr   0.32902   0.05822   0.16194   1.000
    Zr33    Zr   0.32902   0.55823   0.16194   1.000
    Zr34    Zr   0.82901   0.05822   0.16194   1.000
    Zr35    Zr   0.82900   0.55822   0.16194   1.000
    Zr36    Zr   0.27019   0.44271   0.33765   1.000
    Zr37    Zr   0.27018   0.94272   0.33765   1.000
    Zr38    Zr   0.77018   0.44271   0.33766   1.000
    Zr39    Zr   0.77017   0.94272   0.33766   1.000
    Zr40    Zr   0.01247   0.38495   0.60336   1.000
    Zr41    Zr   0.01246   0.88495   0.60336   1.000
    Zr42    Zr   0.51245   0.38495   0.60336   1.000
    Zr43    Zr   0.51245   0.88496   0.60336   1.000
    Zr44    Zr   0.12800   0.11561   0.89658   1.000
    Zr45    Zr   0.12799   0.61562   0.89658   1.000
    Zr46    Zr   0.62799   0.11561   0.89658   1.000
    Zr47    Zr   0.62799   0.61562   0.89658   1.000
    Zr48    Zr   0.48751   0.11508   0.39667   1.000
    Zr49    Zr   0.48752   0.61508   0.39660   1.000
    Zr50    Zr   0.98751   0.11508   0.39666   1.000
    Zr51    Zr   0.98750   0.61508   0.39667   1.000
    Zr52    Zr   0.37200   0.38442   0.10344   1.000
    Zr53    Zr   0.37199   0.88443   0.10344   1.000
    Zr54    Zr   0.87198   0.38442   0.10344   1.000
    Zr55    Zr   0.87198   0.88443   0.10344   1.000
    Zr56    Zr   0.03722   0.44690   0.65207   1.000
    Zr57    Zr   0.03722   0.94690   0.65206   1.000
    Zr58    Zr   0.53721   0.44690   0.65206   1.000
    Zr59    Zr   0.53721   0.94690   0.65207   1.000
    Zr60    Zr   0.14676   0.43176   0.78079   1.000
    Zr61    Zr   0.14675   0.93176   0.78079   1.000
    Zr62    Zr   0.64674   0.43176   0.78079   1.000
    Zr63    Zr   0.64674   0.93176   0.78079   1.000
    Zr64    Zr   0.02761   0.33865   0.61863   1.000
    Zr65    Zr   0.02761   0.83865   0.61863   1.000
    Zr66    Zr   0.52760   0.33865   0.61863   1.000
    Zr67    Zr   0.52759   0.83865   0.61863   1.000
    Zr68    Zr   0.09055   0.05384   0.84758   1.000
    Zr69    Zr   0.09055   0.55384   0.84758   1.000
    Zr70    Zr   0.59054   0.05384   0.84758   1.000
    Zr71    Zr   0.59053   0.55385   0.84757   1.000
    Zr72    Zr   0.21569   0.06759   0.71964   1.000
    Zr73    Zr   0.21569   0.56759   0.71964   1.000
    Zr74    Zr   0.71568   0.06759   0.71963   1.000
    Zr75    Zr   0.71567   0.56760   0.71963   1.000
    Zr76    Zr   0.18962   0.16153   0.88157   1.000
    Zr77    Zr   0.18961   0.66153   0.88157   1.000
    Zr78    Zr   0.68961   0.16153   0.88157   1.000
    Zr79    Zr   0.68960   0.66154   0.88157   1.000
    Zr80    Zr   0.46277   0.05313   0.34795   1.000
    Zr81    Zr   0.46276   0.55314   0.34796   1.000
    Zr82    Zr   0.96276   0.05313   0.34796   1.000
    Zr83    Zr   0.96275   0.55313   0.34796   1.000
    Zr84    Zr   0.35323   0.06828   0.21923   1.000
    Zr85    Zr   0.35323   0.56828   0.21923   1.000
    Zr86    Zr   0.85322   0.06828   0.21923   1.000
    Zr87    Zr   0.85322   0.56828   0.21923   1.000
    Zr88    Zr   0.47239   0.16138   0.38139   1.000
    Zr89    Zr   0.47238   0.66139   0.38139   1.000
    Zr90    Zr   0.97238   0.16138   0.38139   1.000
    Zr91    Zr   0.97237   0.66138   0.38139   1.000
    Zr92    Zr   0.40943   0.44620   0.15243   1.000
    Zr93    Zr   0.40943   0.94620   0.15243   1.000
    Zr94    Zr   0.90942   0.44619   0.15244   1.000
    Zr95    Zr   0.90942   0.94620   0.15240   1.000
    Zr96    Zr   0.28431   0.43244   0.28038   1.000
    Zr97    Zr   0.28430   0.93244   0.28038   1.000
    Zr98    Zr   0.78429   0.43244   0.28038   1.000
    Zr99    Zr   0.78429   0.93244   0.28038   1.000
    Zr100   Zr   0.31039   0.33851   0.11840   1.000
    Zr101   Zr   0.31038   0.83851   0.11845   1.000
    Zr102   Zr   0.81037   0.33850   0.11840   1.000
    Zr103   Zr   0.81037   0.83851   0.11840   1.000
    O104    O    0.34118   0.86147   0.11094   1.000
    O105    O    0.39071   0.91531   0.12794   1.000
    O106    O    0.84118   0.36146   0.11092   1.000
    O107    O    0.89070   0.41531   0.12794   1.000
    O108    O    0.84117   0.86147   0.11092   1.000
    O109    O    0.89070   0.91531   0.12792   1.000
    O110    O    0.34119   0.36146   0.11092   1.000
    O111    O    0.39071   0.41531   0.12794   1.000
    O112    O    0.28649   0.33744   0.17383   1.000
    O113    O    0.78647   0.83744   0.17383   1.000
    O114    O    0.78648   0.33744   0.17383   1.000
    O115    O    0.28648   0.83745   0.17386   1.000
    O116    O    0.89237   0.97308   0.20120   1.000
    O117    O    0.39238   0.97309   0.20122   1.000
    O118    O    0.39238   0.47309   0.20122   1.000
    O119    O    0.89237   0.47308   0.20122   1.000
    O120    O    0.84111   0.56325   0.19059   1.000
    O121    O    0.84112   0.06325   0.19059   1.000
    O122    O    0.34113   0.06325   0.19059   1.000
    O123    O    0.34112   0.56326   0.19059   1.000
    O124    O    0.36428   0.03412   0.23461   1.000
    O125    O    0.36428   0.53413   0.23461   1.000
    O126    O    0.86427   0.03412   0.23461   1.000
    O127    O    0.86427   0.53412   0.23461   1.000
    O128    O    0.82980   0.96620   0.26519   1.000
    O129    O    0.91904   0.02655   0.29898   1.000
    O130    O    0.82980   0.46620   0.26519   1.000
    O131    O    0.91903   0.52655   0.29898   1.000
    O132    O    0.32982   0.46621   0.26519   1.000
    O133    O    0.41905   0.52656   0.29898   1.000
    O134    O    0.32982   0.96621   0.26519   1.000
    O135    O    0.41905   0.02655   0.29897   1.000
    O136    O    0.94984   0.16275   0.32604   1.000
    O137    O    0.44985   0.16275   0.32604   1.000
    O138    O    0.44985   0.66276   0.32604   1.000
    O139    O    0.94984   0.66276   0.32604   1.000
    O140    O    0.27725   0.43758   0.30901   1.000
    O141    O    0.27724   0.93758   0.30901   1.000
    O142    O    0.77723   0.43757   0.30902   1.000
    O143    O    0.77723   0.93758   0.30902   1.000
    O144    O    0.47514   0.08410   0.37231   1.000
    O145    O    0.97513   0.58411   0.37232   1.000
    O146    O    0.97513   0.08410   0.37231   1.000
    O147    O    0.47514   0.58411   0.37228   1.000
    O148    O    0.97994   0.63823   0.38903   1.000
    O149    O    0.97994   0.13823   0.38902   1.000
    O150    O    0.47995   0.13823   0.38903   1.000
    O151    O    0.47995   0.63823   0.38900   1.000
    O152    O    0.52002   0.86181   0.61099   1.000
    O153    O    0.52483   0.91593   0.62772   1.000
    O154    O    0.52003   0.36180   0.61099   1.000
    O155    O    0.52483   0.41593   0.62771   1.000
    O156    O    0.02004   0.86180   0.61099   1.000
    O157    O    0.02484   0.91593   0.62771   1.000
    O158    O    0.02004   0.36180   0.61099   1.000
    O159    O    0.02485   0.41592   0.62772   1.000
    O160    O    0.55012   0.83728   0.67397   1.000
    O161    O    0.55013   0.33728   0.67397   1.000
    O162    O    0.05014   0.83728   0.67397   1.000
    O163    O    0.05014   0.33727   0.67397   1.000
    O164    O    0.58093   0.47349   0.70102   1.000
    O165    O    0.08094   0.97348   0.70102   1.000
    O166    O    0.08094   0.47348   0.70103   1.000
    O167    O    0.58093   0.97348   0.70103   1.000
    O168    O    0.22274   0.56246   0.69100   1.000
    O169    O    0.72273   0.06246   0.69100   1.000
    O170    O    0.72273   0.56246   0.69100   1.000
    O171    O    0.22275   0.06245   0.69100   1.000
    O172    O    0.67016   0.53384   0.73481   1.000
    O173    O    0.67016   0.03383   0.73481   1.000
    O174    O    0.17017   0.53383   0.73481   1.000
    O175    O    0.17018   0.03383   0.73481   1.000
    O176    O    0.13571   0.96591   0.76539   1.000
    O177    O    0.10761   0.02695   0.79878   1.000
    O178    O    0.13571   0.46591   0.76539   1.000
    O179    O    0.10760   0.52696   0.79878   1.000
    O180    O    0.63569   0.96592   0.76539   1.000
    O181    O    0.60759   0.02696   0.79878   1.000
    O182    O    0.63570   0.46592   0.76539   1.000
    O183    O    0.60759   0.52696   0.79878   1.000
    O184    O    0.21351   0.16259   0.82616   1.000
    O185    O    0.21351   0.66259   0.82616   1.000
    O186    O    0.71350   0.16259   0.82616   1.000
    O187    O    0.71349   0.66260   0.82616   1.000
    O188    O    0.65885   0.93679   0.80944   1.000
    O189    O    0.65886   0.43679   0.80944   1.000
    O190    O    0.15886   0.93679   0.80944   1.000
    O191    O    0.15887   0.43679   0.80944   1.000
    O192    O    0.60926   0.58474   0.87207   1.000
    O193    O    0.10928   0.08473   0.87208   1.000
    O194    O    0.10927   0.58473   0.87208   1.000
    O195    O    0.60926   0.08473   0.87208   1.000
    O196    O    0.65879   0.63858   0.88907   1.000
    O197    O    0.15881   0.13857   0.88907   1.000
    O198    O    0.15880   0.63857   0.88907   1.000
    O199    O    0.65880   0.13857   0.88907   1.000
    O200    O    0.10972   0.38383   0.75506   1.000
    O201    O    0.10971   0.88384   0.75506   1.000
    O202    O    0.60970   0.38383   0.75506   1.000
    O203    O    0.60970   0.88384   0.75506   1.000
    O204    O    0.22655   0.11562   0.74520   1.000
    O205    O    0.22654   0.61562   0.74520   1.000
    O206    O    0.72653   0.11562   0.74519   1.000
    O207    O    0.72653   0.61563   0.74519   1.000
    O208    O    0.39027   0.11620   0.24497   1.000
    O209    O    0.39027   0.61621   0.24497   1.000
    O210    O    0.89026   0.11620   0.24497   1.000
    O211    O    0.89026   0.61620   0.24497   1.000
    O212    O    0.27345   0.38441   0.25482   1.000
    O213    O    0.27344   0.88441   0.25482   1.000
    O214    O    0.77344   0.38441   0.25482   1.000
    O215    O    0.77343   0.88441   0.25482   1.000
    N216    N    0.58326   0.73728   0.19054   1.000
    O217    O    0.64412   0.77016   0.20074   1.000
    O218    O    0.52988   0.70959   0.21645   1.000
    O219    O    0.59793   0.68140   0.06415   1.000
    N220    N    0.34643   0.26348   0.30940   1.000
    O221    O    0.32038   0.29108   0.28353   1.000
    O222    O    0.41683   0.31931   0.43579   1.000
    O223    O    0.37467   0.23053   0.29919   1.000
    N224    N    0.34642   0.76348   0.30940   1.000
    O225    O    0.41683   0.81931   0.43579   1.000
    O226    O    0.32037   0.79109   0.28352   1.000
    O227    O    0.37466   0.73053   0.29919   1.000
    N228    N    0.65356   0.23656   0.69061   1.000
    O229    O    0.58314   0.18072   0.56423   1.000
    O230    O    0.62532   0.26951   0.70082   1.000
    O231    O    0.67960   0.20895   0.71649   1.000
    N232    N    0.15357   0.23656   0.69061   1.000
    O233    O    0.17962   0.20895   0.71649   1.000
    O234    O    0.08316   0.18072   0.56423   1.000
    O235    O    0.12533   0.26950   0.70082   1.000
    N236    N    0.84642   0.26347   0.30940   1.000
    O237    O    0.82037   0.29108   0.28352   1.000
    O238    O    0.91683   0.31930   0.43578   1.000
    O239    O    0.87466   0.23053   0.29919   1.000
    N240    N    0.41673   0.26276   0.80948   1.000
    O241    O    0.40205   0.31864   0.93587   1.000
    O242    O    0.47010   0.29044   0.78357   1.000
    O243    O    0.35587   0.22988   0.79929   1.000
    N244    N    0.58326   0.23727   0.19054   1.000
    O245    O    0.64412   0.27015   0.20074   1.000
    O246    O    0.52989   0.20959   0.21645   1.000
    O247    O    0.59793   0.18139   0.06415   1.000
    N248    N    0.65355   0.73656   0.69056   1.000
    O249    O    0.62531   0.76951   0.70080   1.000
    O250    O    0.67960   0.70895   0.71647   1.000
    O251    O    0.58314   0.68073   0.56419   1.000
    N252    N    0.91671   0.76276   0.80948   1.000
    O253    O    0.85585   0.72988   0.79929   1.000
    O254    O    0.90204   0.81865   0.93587   1.000
    O255    O    0.97009   0.79045   0.78357   1.000
    N256    N    0.84641   0.76348   0.30940   1.000
    O257    O    0.91682   0.81931   0.43579   1.000
    O258    O    0.87465   0.73053   0.29919   1.000
    O259    O    0.82036   0.79109   0.28352   1.000
    N260    N    0.08326   0.73727   0.19054   1.000
    O261    O    0.09794   0.68139   0.06414   1.000
    O262    O    0.14412   0.77016   0.20071   1.000
    O263    O    0.02989   0.70959   0.21644   1.000
    N264    N    0.08327   0.23727   0.19054   1.000
    O265    O    0.14413   0.27015   0.20071   1.000
    O266    O    0.09794   0.18139   0.06414   1.000
    O267    O    0.02989   0.20959   0.21644   1.000
    N268    N    0.15356   0.73656   0.69059   1.000
    O269    O    0.12532   0.76951   0.70081   1.000
    O270    O    0.08315   0.68073   0.56422   1.000
    O271    O    0.17961   0.70895   0.71648   1.000
    N272    N    0.91671   0.26276   0.80948   1.000
    O273    O    0.97009   0.29044   0.78357   1.000
    O274    O    0.85585   0.22988   0.79929   1.000
    O275    O    0.90204   0.31864   0.93587   1.000
    N276    N    0.41672   0.76276   0.80947   1.000
    O277    O    0.47009   0.79045   0.78357   1.000
    O278    O    0.35586   0.72988   0.79928   1.000
    O279    O    0.40205   0.81864   0.93585   1.000
loop_
    _geom_bond_atom_site_label_1
    _geom_bond_atom_site_label_2
    _geom_bond_distance
    _geom_bond_site_symmetry_2
    _ccdc_geom_bond_type
    Zr53   O104      0.63955      .   S
    Zr101  O104      0.63955      .   S
    Zr53   O105      0.63993      .   S
    Zr93   O105      0.63993      .   S
    Zr54   O106      0.63936      .   S
    Zr102  O106      0.63936      .   S
    Zr54   O107      0.63994      .   S
    Zr94   O107      0.63994      .   S
    Zr55   O108      0.63938      .   S
    Zr103  O108      0.63938      .   S
    Zr55   O109      0.63984      .   S
    Zr95   O109      0.63984      .   S
    Zr52   O110      0.63937      .   S
    Zr100  O110      0.63937      .   S
    Zr52   O111      0.63992      .   S
    Zr92   O111      0.63992      .   S
    Zr100  O112      1.02195      .   S
    Zr12   O112      1.02195      .   S
    Zr103  O113      1.02194      .   S
    Zr15   O113      1.02194      .   S
    Zr102  O114      1.02195      .   S
    Zr14   O114      1.02195      .   S
    Zr101  O115      1.02156      .   S
    Zr13   O115      1.02156      .   S
    Zr95   O116      0.99625      .   S
    Zr22   O116      0.99625      .   S
    Zr93   O117      0.99608      .   S
    Zr20   O117      0.99608      .   S
    Zr92   O118      0.99617      .   S
    Zr21   O118      0.99617      .   S
    Zr94   O119      0.99613      .   S
    Zr23   O119      0.99613      .   S
    Zr35   O120      0.48533      .   S
    Zr87   O120      0.48533      .   S
    Zr34   O121      0.48532      .   S
    Zr86   O121      0.48532      .   S
    Zr32   O122      0.48532      .   S
    Zr84   O122      0.48532      .   S
    Zr33   O123      0.48532      .   S
    Zr85   O123      0.48532      .   S
    Zr84   O124      0.97413      .   S
    Zr20   O124      0.97413  1_565   S
    Zr85   O125      0.97413      .   S
    Zr21   O125      0.97413      .   S
    Zr86   O126      0.97413      .   S
    Zr22   O126      0.97413  1_565   S
    Zr87   O127      0.97414      .   S
    Zr23   O127      0.97414      .   S
    Zr22   O128      0.97441      .   S
    Zr99   O128      0.97441      .   S
    Zr22   O129      0.99703  1_565   S
    Zr82   O129      0.99703      .   S
    Zr23   O130      0.97442      .   S
    Zr98   O130      0.97442      .   S
    Zr23   O131      0.99704      .   S
    Zr83   O131      0.99704      .   S
    Zr21   O132      0.97442      .   S
    Zr96   O132      0.97442      .   S
    Zr21   O133      0.99702      .   S
    Zr81   O133      0.99702      .   S
    Zr20   O134      0.97442      .   S
    Zr97   O134      0.97442      .   S
    Zr20   O135      0.99700  1_565   S
    Zr80   O135      0.99700      .   S
    Zr10   O136      1.02054      .   S
    Zr90   O136      1.02054      .   S
    Zr8    O137      1.02056      .   S
    Zr88   O137      1.02056      .   S
    Zr9    O138      1.02054      .   S
    Zr89   O138      1.02054      .   S
    Zr11   O139      1.02055      .   S
    Zr91   O139      1.02055      .   S
    Zr96   O140      0.48529      .   S
    Zr36   O140      0.48529      .   S
    Zr97   O141      0.48529      .   S
    Zr37   O141      0.48529      .   S
    Zr98   O142      0.48536      .   S
    Zr38   O142      0.48536      .   S
    Zr99   O143      0.48536      .   S
    Zr39   O143      0.48536      .   S
    Zr80   O144      0.63996      .   S
    Zr48   O144      0.63996      .   S
    Zr83   O145      0.63995      .   S
    Zr51   O145      0.63995      .   S
    Zr82   O146      0.63993      .   S
    Zr50   O146      0.63993      .   S
    Zr81   O147      0.63977      .   S
    Zr49   O147      0.63977      .   S
    Zr91   O148      0.63960      .   S
    Zr51   O148      0.63960      .   S
    Zr90   O149      0.63959      .   S
    Zr50   O149      0.63959      .   S
    Zr88   O150      0.63958      .   S
    Zr48   O150      0.63958      .   S
    Zr89   O151      0.63937      .   S
    Zr49   O151      0.63937      .   S
    Zr43   O152      0.63957      .   S
    Zr67   O152      0.63957      .   S
    Zr43   O153      0.63995      .   S
    Zr59   O153      0.63995      .   S
    Zr42   O154      0.63960      .   S
    Zr66   O154      0.63960      .   S
    Zr42   O155      0.63993      .   S
    Zr58   O155      0.63993      .   S
    Zr41   O156      0.63959      .   S
    Zr65   O156      0.63959      .   S
    Zr41   O157      0.63993      .   S
    Zr57   O157      0.63993      .   S
    Zr40   O158      0.63958      .   S
    Zr64   O158      0.63958      .   S
    Zr40   O159      0.63995      .   S
    Zr56   O159      0.63995      .   S
    Zr67   O160      1.02054      .   S
    Zr3    O160      1.02054      .   S
    Zr66   O161      1.02053      .   S
    Zr2    O161      1.02053      .   S
    Zr65   O162      1.02053      .   S
    Zr1    O162      1.02053      .   S
    Zr64   O163      1.02054      .   S
    Zr0    O163      1.02054      .   S
    Zr58   O164      0.99687      .   S
    Zr19   O164      0.99687      .   S
    Zr57   O165      0.99690      .   S
    Zr16   O165      0.99690  1_545   S
    Zr56   O166      0.99683      .   S
    Zr17   O166      0.99683      .   S
    Zr59   O167      0.99688      .   S
    Zr18   O167      0.99688  1_545   S
    Zr29   O168      0.48534      .   S
    Zr73   O168      0.48534      .   S
    Zr30   O169      0.48526      .   S
    Zr74   O169      0.48526      .   S
    Zr31   O170      0.48527      .   S
    Zr75   O170      0.48527      .   S
    Zr28   O171      0.48535      .   S
    Zr72   O171      0.48535      .   S
    Zr75   O172      0.97431      .   S
    Zr19   O172      0.97431      .   S
    Zr74   O173      0.97431      .   S
    Zr18   O173      0.97431      .   S
    Zr73   O174      0.97428      .   S
    Zr17   O174      0.97428      .   S
    Zr72   O175      0.97428      .   S
    Zr16   O175      0.97428      .   S
    Zr16   O176      0.97412  1_545   S
    Zr61   O176      0.97412      .   S
    Zr16   O177      0.99632      .   S
    Zr68   O177      0.99632      .   S
    Zr17   O178      0.97426      .   S
    Zr60   O178      0.97426      .   S
    Zr17   O179      0.99631      .   S
    Zr69   O179      0.99631      .   S
    Zr18   O180      0.97412  1_545   S
    Zr63   O180      0.97412      .   S
    Zr18   O181      0.99632      .   S
    Zr70   O181      0.99632      .   S
    Zr19   O182      0.97425      .   S
    Zr62   O182      0.97425      .   S
    Zr19   O183      0.99628      .   S
    Zr71   O183      0.99628      .   S
    Zr4    O184      1.02154      .   S
    Zr76   O184      1.02154      .   S
    Zr5    O185      1.02154      .   S
    Zr77   O185      1.02154      .   S
    Zr6    O186      1.02154      .   S
    Zr78   O186      1.02154      .   S
    Zr7    O187      1.02154      .   S
    Zr79   O187      1.02154      .   S
    Zr63   O188      0.48536      .   S
    Zr27   O188      0.48536      .   S
    Zr62   O189      0.48538      .   S
    Zr26   O189      0.48538      .   S
    Zr61   O190      0.48537      .   S
    Zr25   O190      0.48537      .   S
    Zr60   O191      0.48536      .   S
    Zr24   O191      0.48536      .   S
    Zr71   O192      0.63994      .   S
    Zr47   O192      0.63994      .   S
    Zr68   O193      0.63993      .   S
    Zr44   O193      0.63993      .   S
    Zr69   O194      0.63993      .   S
    Zr45   O194      0.63993      .   S
    Zr70   O195      0.63992      .   S
    Zr46   O195      0.63992      .   S
    Zr79   O196      0.63957      .   S
    Zr47   O196      0.63957      .   S
    Zr76   O197      0.63957      .   S
    Zr44   O197      0.63957      .   S
    Zr77   O198      0.63957      .   S
    Zr45   O198      0.63957      .   S
    Zr78   O199      0.63957      .   S
    Zr46   O199      0.63957      .   S
    Zr60   O200      0.97584      .   S
    Zr0    O200      0.97584      .   S
    Zr61   O201      0.97583      .   S
    Zr1    O201      0.97583      .   S
    Zr62   O202      0.97583      .   S
    Zr2    O202      0.97583      .   S
    Zr63   O203      0.97584      .   S
    Zr3    O203      0.97584      .   S
    Zr72   O204      0.97605      .   S
    Zr4    O204      0.97605      .   S
    Zr73   O205      0.97605      .   S
    Zr5    O205      0.97605      .   S
    Zr74   O206      0.97605      .   S
    Zr6    O206      0.97605      .   S
    Zr75   O207      0.97605      .   S
    Zr7    O207      0.97605      .   S
    Zr84   O208      0.97583      .   S
    Zr8    O208      0.97583      .   S
    Zr85   O209      0.97583      .   S
    Zr9    O209      0.97583      .   S
    Zr86   O210      0.97583      .   S
    Zr10   O210      0.97583      .   S
    Zr87   O211      0.97583      .   S
    Zr11   O211      0.97583      .   S
    Zr96   O212      0.97606      .   S
    Zr12   O212      0.97606      .   S
    Zr97   O213      0.97606      .   S
    Zr13   O213      0.97606      .   S
    Zr98   O214      0.97605      .   S
    Zr14   O214      0.97605      .   S
    Zr99   O215      0.97606      .   S
    Zr15   O215      0.97606      .   S
    N216   O217      1.05026      .   S
    Zr15   O217      2.05319      .   S
    N216   O218      1.10135      .   S
    Zr9    O218      2.10917      .   S
    N216   O219      2.18626      .   S
    Zr47   O219      2.91171  1_556   S
    N220   O221      1.10054      .   S
    Zr12   O221      2.10852      .   S
    N220   O222      2.18665      .   S
    Zr42   O222      2.91202      .   S
    N220   O223      1.05150      .   S
    Zr8    O223      2.05512      .   S
    N224   O225      2.18666      .   S
    Zr43   O225      2.91203      .   S
    N224   O226      1.10062      .   S
    Zr13   O226      2.10844      .   S
    N224   O227      1.05150      .   S
    Zr9    O227      2.05512      .   S
    N228   O229      2.18658      .   S
    Zr48   O229      2.91196      .   S
    N228   O230      1.05150      .   S
    Zr2    O230      2.05515      .   S
    N228   O231      1.10060      .   S
    Zr6    O231      2.10860      .   S
    N232   O233      1.10059      .   S
    Zr4    O233      2.10857      .   S
    N232   O234      2.18666      .   S
    Zr50   O234      2.91213  1_655   S
    N232   O235      1.05150      .   S
    Zr0    O235      2.05514      .   S
    N236   O237      1.10053      .   S
    Zr14   O237      2.10850      .   S
    N236   O238      2.18673      .   S
    Zr40   O238      2.91221  1_455   S
    N236   O239      1.05150      .   S
    Zr10   O239      2.05512      .   S
    N240   O241      2.18629      .   S
    Zr52   O241      2.91175  1_554   S
    N240   O242      1.10135      .   S
    Zr2    O242      2.10919      .   S
    N240   O243      1.05027      .   S
    Zr4    O243      2.05318      .   S
    N244   O245      1.05027      .   S
    Zr14   O245      2.05318      .   S
    N244   O246      1.10134      .   S
    Zr8    O246      2.10917      .   S
    N244   O247      2.18626      .   S
    Zr46   O247      2.91170  1_556   S
    N248   O249      1.05148      .   S
    Zr3    O249      2.05516      .   S
    N248   O250      1.10082      .   S
    Zr7    O250      2.10881      .   S
    N248   O251      2.18649      .   S
    Zr49   O251      2.91227      .   S
    N252   O253      1.05030      .   S
    Zr7    O253      2.05321      .   S
    N252   O254      2.18630      .   S
    Zr55   O254      2.91176  1_554   S
    N252   O255      1.10140      .   S
    Zr1    O255      2.10940  1_455   S
    N256   O257      2.18669      .   S
    Zr41   O257      2.91217  1_455   S
    N256   O258      1.05150      .   S
    Zr11   O258      2.05512      .   S
    N256   O259      1.10061      .   S
    Zr15   O259      2.10843      .   S
    N260   O261      2.18634      .   S
    Zr45   O261      2.91159  1_556   S
    N260   O262      1.05031      .   S
    Zr13   O262      2.05323      .   S
    N260   O263      1.10142      .   S
    Zr11   O263      2.10942  1_655   S
    N264   O265      1.05031      .   S
    Zr12   O265      2.05321      .   S
    N264   O266      2.18633      .   S
    Zr44   O266      2.91158  1_556   S
    N264   O267      1.10143      .   S
    Zr10   O267      2.10942  1_655   S
    N268   O269      1.05149      .   S
    Zr1    O269      2.05515      .   S
    N268   O270      2.18651      .   S
    Zr51   O270      2.91191  1_655   S
    N268   O271      1.10069      .   S
    Zr5    O271      2.10867      .   S
    N272   O273      1.10140      .   S
    Zr0    O273      2.10941  1_455   S
    N272   O274      1.05029      .   S
    Zr6    O274      2.05321      .   S
    N272   O275      2.18630      .   S
    Zr54   O275      2.91176  1_554   S
    N276   O277      1.10133      .   S
    Zr3    O277      2.10916      .   S
    N276   O278      1.05026      .   S
    Zr5    O278      2.05318      .   S
    N276   O279      2.18601      .   S
    Zr53   O279      2.91206  1_554   S
