# CIF file generated by openbabel 2.4.90, see http://openbabel.sf.net
data_I
_chemical_name_common 'VESTA_phase_1'
_cell_length_a 23.416
_cell_length_b 15.734
_cell_length_c 18.046
_cell_angle_alpha 88.64
_cell_angle_beta 89.846
_cell_angle_gamma 90.01
_space_group_name_H-M_alt 'P 1'
_space_group_name_Hall 'P 1'
loop_
    _symmetry_equiv_pos_as_xyz
    x,y,z
loop_
    _atom_site_label
    _atom_site_type_symbol
    _atom_site_fract_x
    _atom_site_fract_y
    _atom_site_fract_z
    _atom_site_occupancy
    Zn0     Zn   0.12994   0.50710   0.78280   1.000
    Zn1     Zn   0.62993   0.50712   0.78374   1.000
    Zn2     Zn   0.12992   0.50237   0.93789   1.000
    Zn3     Zn   0.62992   0.50283   0.93836   1.000
    Zn4     Zn   0.37844   0.49259   0.21830   1.000
    Zn5     Zn   0.87844   0.49256   0.21826   1.000
    Zn6     Zn   0.37986   0.49676   0.06270   1.000
    Zn7     Zn   0.87976   0.49678   0.06261   1.000
    H8      H    0.03704   0.48830   0.19570   1.000
    H9      H    0.53703   0.48865   0.19625   1.000
    H10     H    0.22202   0.50187   0.19513   1.000
    H11     H    0.72203   0.50168   0.19560   1.000
    H12     H    0.48506   0.00151   0.85297   1.000
    H13     H    0.98508   0.00191   0.85237   1.000
    H14     H    0.27469   0.00778   0.85036   1.000
    H15     H    0.77470   0.00810   0.85053   1.000
    H16     H    0.20133   0.75868   0.94662   1.000
    H17     H    0.70132   0.75949   0.94692   1.000
    H18     H    0.05712   0.24559   0.94949   1.000
    H19     H    0.55695   0.24535   0.95031   1.000
    H20     H    0.26128   0.88980   0.94203   1.000
    H21     H    0.76146   0.89043   0.94216   1.000
    H22     H    0.49669   0.11489   0.94514   1.000
    H23     H    0.99683   0.11510   0.94446   1.000
    H24     H    0.29114   0.66552   0.75730   1.000
    H25     H    0.79073   0.66604   0.75745   1.000
    H26     H    0.47090   0.34786   0.75839   1.000
    H27     H    0.97066   0.34822   0.75791   1.000
    H28     H    0.35560   0.79130   0.75831   1.000
    H29     H    0.85532   0.79169   0.75816   1.000
    H30     H    0.40613   0.22239   0.75844   1.000
    H31     H    0.90588   0.22270   0.75813   1.000
    H32     H    0.04088   0.49215   0.05806   1.000
    H33     H    0.54085   0.49261   0.05859   1.000
    H34     H    0.21834   0.50453   0.05749   1.000
    H35     H    0.71833   0.50449   0.05799   1.000
    H36     H    0.05409   0.75335   0.76227   1.000
    H37     H    0.55407   0.75307   0.76276   1.000
    H38     H    0.20711   0.26270   0.76094   1.000
    H39     H    0.70702   0.26333   0.76155   1.000
    H40     H    0.46558   0.66489   0.95905   1.000
    H41     H    0.96581   0.66521   0.95873   1.000
    H42     H    0.29301   0.33742   0.95938   1.000
    H43     H    0.79338   0.33783   0.95972   1.000
    H44     H    0.49290   0.88287   0.75816   1.000
    H45     H    0.99291   0.88312   0.75777   1.000
    H46     H    0.26821   0.13302   0.75610   1.000
    H47     H    0.76798   0.13356   0.75645   1.000
    H48     H    0.40225   0.79057   0.95192   1.000
    H49     H    0.90252   0.79092   0.95177   1.000
    H50     H    0.35627   0.21208   0.95210   1.000
    H51     H    0.85653   0.21243   0.95217   1.000
    H52     H    0.04960   0.43232   0.52844   1.000
    H53     H    0.54960   0.43247   0.52906   1.000
    H54     H    0.20859   0.57183   0.52138   1.000
    H55     H    0.70879   0.57149   0.52206   1.000
    H56     H    0.05231   0.44157   0.66695   1.000
    H57     H    0.55229   0.44174   0.66754   1.000
    H58     H    0.20602   0.57174   0.66039   1.000
    H59     H    0.70615   0.57154   0.66102   1.000
    H60     H    0.28789   0.51037   0.80506   1.000
    H61     H    0.78785   0.51097   0.80488   1.000
    H62     H    0.47284   0.49897   0.80541   1.000
    H63     H    0.97281   0.49944   0.80520   1.000
    H64     H    0.23429   0.99784   0.14687   1.000
    H65     H    0.73435   0.99776   0.14687   1.000
    H66     H    0.02390   0.99156   0.14928   1.000
    H67     H    0.52396   0.99156   0.14986   1.000
    H68     H    0.45087   0.24048   0.05391   1.000
    H69     H    0.95064   0.24010   0.05313   1.000
    H70     H    0.30634   0.75326   0.05015   1.000
    H71     H    0.80622   0.75305   0.05015   1.000
    H72     H    0.01095   0.10938   0.05744   1.000
    H73     H    0.51095   0.10955   0.05810   1.000
    H74     H    0.24593   0.88365   0.05459   1.000
    H75     H    0.74585   0.88349   0.05464   1.000
    H76     H    0.03925   0.33328   0.24264   1.000
    H77     H    0.53970   0.33329   0.24339   1.000
    H78     H    0.22043   0.65264   0.24342   1.000
    H79     H    0.72046   0.65260   0.24361   1.000
    H80     H    0.10419   0.20799   0.24140   1.000
    H81     H    0.60447   0.20779   0.24200   1.000
    H82     H    0.15534   0.77793   0.24263   1.000
    H83     H    0.65543   0.77796   0.24288   1.000
    H84     H    0.29121   0.50634   0.94290   1.000
    H85     H    0.79116   0.50670   0.94270   1.000
    H86     H    0.46873   0.49611   0.94315   1.000
    H87     H    0.96869   0.49647   0.94296   1.000
    H88     H    0.30266   0.24612   0.23811   1.000
    H89     H    0.80275   0.24619   0.23808   1.000
    H90     H    0.45631   0.73654   0.24034   1.000
    H91     H    0.95624   0.73656   0.24001   1.000
    H92     H    0.21521   0.33538   0.04200   1.000
    H93     H    0.71506   0.33537   0.04214   1.000
    H94     H    0.04295   0.66091   0.04185   1.000
    H95     H    0.54291   0.66100   0.04208   1.000
    H96     H    0.24172   0.11604   0.24172   1.000
    H97     H    0.74188   0.11602   0.24180   1.000
    H98     H    0.01706   0.86659   0.24400   1.000
    H99     H    0.51713   0.86656   0.24441   1.000
    H100    H    0.15206   0.20944   0.04820   1.000
    H101    H    0.65196   0.20933   0.04846   1.000
    H102    H    0.10588   0.78667   0.04830   1.000
    H103    H    0.60589   0.78671   0.04860   1.000
    H104    H    0.28944   0.52799   0.47560   1.000
    H105    H    0.78937   0.52760   0.47543   1.000
    H106    H    0.46960   0.46836   0.47580   1.000
    H107    H    0.96970   0.46911   0.47565   1.000
    H108    H    0.29234   0.52313   0.33735   1.000
    H109    H    0.79230   0.52258   0.33714   1.000
    H110    H    0.46471   0.46254   0.33767   1.000
    H111    H    0.96484   0.46306   0.33754   1.000
    C112    C    0.24253   0.70378   0.85200   1.000
    C113    C    0.74235   0.70442   0.85273   1.000
    C114    C    0.01763   0.30508   0.85417   1.000
    C115    C    0.51768   0.30484   0.85483   1.000
    C116    C    0.20497   0.62686   0.85417   1.000
    C117    C    0.70485   0.62742   0.85460   1.000
    C118    C    0.05526   0.38176   0.85624   1.000
    C119    C    0.55531   0.38158   0.85690   1.000
    C120    C    0.31297   0.84930   0.85068   1.000
    C121    C    0.81294   0.84974   0.85069   1.000
    C122    C    0.44687   0.15989   0.85221   1.000
    C123    C    0.94684   0.16018   0.85173   1.000
    C124    C    0.44324   0.84589   0.85463   1.000
    C125    C    0.94332   0.84620   0.85432   1.000
    C126    C    0.31657   0.16336   0.85371   1.000
    C127    C    0.81660   0.16377   0.85388   1.000
    C128    C    0.07808   0.49201   0.16737   1.000
    C129    C    0.57807   0.49227   0.16789   1.000
    C130    C    0.18103   0.49960   0.16000   1.000
    C131    C    0.68102   0.49955   0.16750   1.000
    C132    C    0.40906   0.92537   0.85224   1.000
    C133    C    0.90911   0.92568   0.85196   1.000
    C134    C    0.35068   0.08391   0.85158   1.000
    C135    C    0.85068   0.08428   0.85154   1.000
    C136    C    0.05319   0.62553   0.86235   1.000
    C137    C    0.55312   0.62544   0.86289   1.000
    C138    C    0.20679   0.38357   0.86268   1.000
    C139    C    0.70691   0.38408   0.86317   1.000
    C140    C    0.01406   0.70093   0.86044   1.000
    C141    C    0.51393   0.70070   0.86087   1.000
    C142    C    0.24596   0.30836   0.86015   1.000
    C143    C    0.74609   0.30889   0.86062   1.000
    C144    C    0.43849   0.00294   0.85233   1.000
    C145    C    0.93850   0.00327   0.85190   1.000
    C146    C    0.32127   0.00635   0.85083   1.000
    C147    C    0.82128   0.00671   0.85086   1.000
    C148    C    0.34868   0.92713   0.85119   1.000
    C149    C    0.84871   0.92750   0.85111   1.000
    C150    C    0.41108   0.08214   0.85205   1.000
    C151    C    0.91107   0.08246   0.85171   1.000
    C152    C    0.23439   0.76725   0.90458   1.000
    C153    C    0.73434   0.76794   0.90479   1.000
    C154    C    0.02474   0.23916   0.90680   1.000
    C155    C    0.52466   0.23893   0.90751   1.000
    C156    C    0.26831   0.83981   0.90229   1.000
    C157    C    0.76835   0.84040   0.90241   1.000
    C158    C    0.49056   0.16672   0.90488   1.000
    C159    C    0.99063   0.16696   0.90425   1.000
    C160    C    0.28566   0.71410   0.79884   1.000
    C161    C    0.78538   0.71464   0.79893   1.000
    C162    C    0.47550   0.29729   0.80024   1.000
    C163    C    0.97534   0.29759   0.79970   1.000
    C164    C    0.32130   0.78491   0.79900   1.000
    C165    C    0.82110   0.78536   0.79900   1.000
    C166    C    0.43967   0.22672   0.79997   1.000
    C167    C    0.93951   0.22702   0.79953   1.000
    C168    C    0.08001   0.49360   0.09038   1.000
    C169    C    0.58000   0.49394   0.09090   1.000
    C170    C    0.17918   0.50162   0.09006   1.000
    C171    C    0.67917   0.50168   0.09050   1.000
    C172    C    0.12954   0.49519   0.20675   1.000
    C173    C    0.62954   0.49526   0.20728   1.000
    C174    C    0.02099   0.76272   0.80378   1.000
    C175    C    0.52092   0.76246   0.80420   1.000
    C176    C    0.23971   0.25047   0.80279   1.000
    C177    C    0.73969   0.25102   0.80327   1.000
    C178    C    0.47104   0.71181   0.91422   1.000
    C179    C    0.97123   0.71212   0.91388   1.000
    C180    C    0.28813   0.29356   0.91402   1.000
    C181    C    0.78836   0.29401   0.91435   1.000
    C182    C    0.12967   0.49460   0.28830   1.000
    C183    C    0.62970   0.49460   0.28885   1.000
    C184    C    0.48665   0.83458   0.80182   1.000
    C185    C    0.98669   0.83485   0.80145   1.000
    C186    C    0.27394   0.17838   0.80028   1.000
    C187    C    0.77386   0.17888   0.80062   1.000
    C188    C    0.43557   0.78291   0.91033   1.000
    C189    C    0.93576   0.78323   0.91006   1.000
    C190    C    0.32355   0.22263   0.91005   1.000
    C191    C    0.82373   0.22303   0.91022   1.000
    C192    C    0.12948   0.49789   0.43194   1.000
    C193    C    0.62957   0.49780   0.43252   1.000
    C194    C    0.12915   0.50152   0.51350   1.000
    C195    C    0.62924   0.50143   0.51413   1.000
    C196    C    0.08463   0.46463   0.55531   1.000
    C197    C    0.58468   0.46470   0.55592   1.000
    C198    C    0.17354   0.54151   0.55145   1.000
    C199    C    0.67367   0.54130   0.55200   1.000
    C200    C    0.08597   0.46894   0.63206   1.000
    C201    C    0.58600   0.46904   0.63268   1.000
    C202    C    0.17223   0.54235   0.62839   1.000
    C203    C    0.67233   0.54221   0.62903   1.000
    C204    C    0.49166   0.29526   0.14810   1.000
    C205    C    0.99130   0.29506   0.14734   1.000
    C206    C    0.26701   0.69465   0.14627   1.000
    C207    C    0.76696   0.69453   0.14636   1.000
    C208    C    0.45406   0.37219   0.14628   1.000
    C209    C    0.95361   0.37188   0.14558   1.000
    C210    C    0.30463   0.61785   0.14459   1.000
    C211    C    0.80458   0.61775   0.14462   1.000
    C212    C    0.06214   0.14997   0.14800   1.000
    C213    C    0.56227   0.14997   0.14952   1.000
    C214    C    0.19607   0.83948   0.14811   1.000
    C215    C    0.69609   0.83941   0.14826   1.000
    C216    C    0.19251   0.15355   0.14535   1.000
    C217    C    0.69256   0.15349   0.14552   1.000
    C218    C    0.06583   0.83584   0.14657   1.000
    C219    C    0.56586   0.83584   0.14688   1.000
    C220    C    0.32879   0.50714   0.83350   1.000
    C221    C    0.82876   0.50766   0.83331   1.000
    C222    C    0.43176   0.50069   0.83368   1.000
    C223    C    0.93173   0.50115   0.83350   1.000
    C224    C    0.15832   0.07402   0.14743   1.000
    C225    C    0.65839   0.07395   0.14769   1.000
    C226    C    0.09988   0.91540   0.14834   1.000
    C227    C    0.59993   0.91538   0.14867   1.000
    C228    C    0.30208   0.37458   0.13876   1.000
    C229    C    0.80199   0.37464   0.13876   1.000
    C230    C    0.45648   0.61497   0.13929   1.000
    C231    C    0.95649   0.61485   0.13911   1.000
    C232    C    0.26299   0.29913   0.14020   1.000
    C233    C    0.76295   0.29913   0.14025   1.000
    C234    C    0.49555   0.69036   0.14132   1.000
    C235    C    0.99553   0.69030   0.14105   1.000
    C236    C    0.18771   0.99644   0.14745   1.000
    C237    C    0.68777   0.99638   0.14759   1.000
    C238    C    0.07048   0.99297   0.14883   1.000
    C239    C    0.57054   0.99295   0.14931   1.000
    C240    C    0.09792   0.07221   0.14839   1.000
    C241    C    0.59799   0.07217   0.14886   1.000
    C242    C    0.16028   0.91722   0.14791   1.000
    C243    C    0.66032   0.91718   0.14811   1.000
    C244    C    0.48380   0.23189   0.09590   1.000
    C245    C    0.98356   0.23164   0.09515   1.000
    C246    C    0.27399   0.76004   0.09304   1.000
    C247    C    0.77391   0.75989   0.09300   1.000
    C248    C    0.01768   0.15932   0.09728   1.000
    C249    C    0.51778   0.15944   0.09798   1.000
    C250    C    0.23981   0.83220   0.09527   1.000
    C251    C    0.73976   0.83207   0.09535   1.000
    C252    C    0.03423   0.28486   0.20098   1.000
    C253    C    0.53458   0.28491   0.20171   1.000
    C254    C    0.22479   0.70271   0.20104   1.000
    C255    C    0.72481   0.70264   0.20120   1.000
    C256    C    0.07007   0.21429   0.20067   1.000
    C257    C    0.57032   0.21422   0.20130   1.000
    C258    C    0.18889   0.77319   0.20093   1.000
    C259    C    0.68893   0.77315   0.20112   1.000
    C260    C    0.33045   0.50539   0.91048   1.000
    C261    C    0.83041   0.50580   0.91029   1.000
    C262    C    0.42967   0.49856   0.91062   1.000
    C263    C    0.92962   0.49894   0.91045   1.000
    C264    C    0.38039   0.50466   0.79403   1.000
    C265    C    0.88036   0.50518   0.79384   1.000
    C266    C    0.26976   0.23694   0.19651   1.000
    C267    C    0.76982   0.23696   0.19654   1.000
    C268    C    0.48902   0.74865   0.19830   1.000
    C269    C    0.98897   0.74864   0.19807   1.000
    C270    C    0.22047   0.28819   0.08662   1.000
    C271    C    0.72038   0.28816   0.08674   1.000
    C272    C    0.03784   0.70502   0.08702   1.000
    C273    C    0.53783   0.70509   0.08727   1.000
    C274    C    0.38067   0.50571   0.71244   1.000
    C275    C    0.88065   0.50623   0.71225   1.000
    C276    C    0.23561   0.16465   0.19834   1.000
    C277    C    0.73571   0.16462   0.19842   1.000
    C278    C    0.02305   0.82095   0.20012   1.000
    C279    C    0.52309   0.82094   0.20045   1.000
    C280    C    0.18511   0.21691   0.08998   1.000
    C281    C    0.68506   0.21683   0.09016   1.000
    C282    C    0.07308   0.77620   0.09053   1.000
    C283    C    0.57309   0.77624   0.09081   1.000
    C284    C    0.38029   0.50268   0.56894   1.000
    C285    C    0.88028   0.50301   0.56875   1.000
    C286    C    0.37961   0.49875   0.48728   1.000
    C287    C    0.87962   0.49895   0.48710   1.000
    C288    C    0.32918   0.51390   0.44737   1.000
    C289    C    0.82915   0.51372   0.44717   1.000
    C290    C    0.42941   0.48006   0.44750   1.000
    C291    C    0.92948   0.48051   0.44734   1.000
    C292    C    0.33035   0.51063   0.37054   1.000
    C293    C    0.83035   0.51034   0.37034   1.000
    C294    C    0.42712   0.47734   0.37000   1.000
    C295    C    0.92721   0.47765   0.37054   1.000
    N296    N    0.12960   0.49877   0.05221   1.000
    N297    N    0.62958   0.49904   0.05271   1.000
    N298    N    0.17867   0.51699   0.32274   1.000
    N299    N    0.67872   0.51692   0.32328   1.000
    N300    N    0.08120   0.47063   0.32452   1.000
    N301    N    0.58125   0.47058   0.32510   1.000
    N302    N    0.17873   0.51775   0.39611   1.000
    N303    N    0.67880   0.51764   0.39666   1.000
    N304    N    0.08097   0.47344   0.39787   1.000
    N305    N    0.58105   0.47334   0.39845   1.000
    N306    N    0.12915   0.50676   0.66804   1.000
    N307    N    0.62920   0.50678   0.66870   1.000
    N308    N    0.37995   0.50080   0.94856   1.000
    N309    N    0.87990   0.50114   0.94839   1.000
    N310    N    0.42931   0.48165   0.67773   1.000
    N311    N    0.92931   0.48221   0.67756   1.000
    N312    N    0.33270   0.53203   0.67671   1.000
    N313    N    0.83267   0.53244   0.67648   1.000
    N314    N    0.42915   0.48055   0.60436   1.000
    N315    N    0.92917   0.48103   0.60419   1.000
    N316    N    0.33245   0.52988   0.60333   1.000
    N317    N    0.83243   0.53020   0.60311   1.000
    N318    N    0.37848   0.49262   0.33280   1.000
    N319    N    0.87853   0.49258   0.33263   1.000
    O320    O    0.18008   0.60795   0.91530   1.000
    O321    O    0.67991   0.60875   0.91576   1.000
    O322    O    0.08011   0.39675   0.91729   1.000
    O323    O    0.58012   0.39674   0.91795   1.000
    O324    O    0.05775   0.58185   0.92257   1.000
    O325    O    0.55772   0.58187   0.92318   1.000
    O326    O    0.20192   0.42287   0.92346   1.000
    O327    O    0.70200   0.42348   0.92389   1.000
    O328    O    0.20053   0.58553   0.79434   1.000
    O329    O    0.70055   0.58574   0.79497   1.000
    O330    O    0.05968   0.42697   0.79674   1.000
    O331    O    0.55972   0.42670   0.79732   1.000
    O332    O    0.07977   0.61073   0.80217   1.000
    O333    O    0.57976   0.61066   0.80276   1.000
    O334    O    0.18052   0.40267   0.80267   1.000
    O335    O    0.68060   0.40299   0.80315   1.000
    O336    O    0.42900   0.39000   0.08519   1.000
    O337    O    0.92806   0.38933   0.08475   1.000
    O338    O    0.33034   0.60312   0.08390   1.000
    O339    O    0.83034   0.60314   0.08393   1.000
    O340    O    0.30747   0.41801   0.07847   1.000
    O341    O    0.80728   0.41812   0.07850   1.000
    O342    O    0.45201   0.57497   0.07881   1.000
    O343    O    0.95206   0.57470   0.07870   1.000
    O344    O    0.44978   0.41440   0.20563   1.000
    O345    O    0.94973   0.41446   0.20476   1.000
    O346    O    0.30808   0.57231   0.20398   1.000
    O347    O    0.80803   0.57212   0.20396   1.000
    O348    O    0.32777   0.38951   0.19942   1.000
    O349    O    0.82773   0.38952   0.19940   1.000
    O350    O    0.42996   0.59648   0.19943   1.000
    O351    O    0.92994   0.59649   0.19925   1.000
loop_
    _geom_bond_atom_site_label_1
    _geom_bond_atom_site_label_2
    _geom_bond_distance
    _geom_bond_site_symmetry_2
    _ccdc_geom_bond_type
    H94    C272      1.08942      .   S
    H92    C270      1.08954      .   S
    H95    C273      1.08938      .   S
    H93    C271      1.08960      .   S
    H100   C280      1.09007      .   S
    H102   C282      1.09037      .   S
    H101   C281      1.09005      .   S
    H103   C283      1.09002      .   S
    H71    C247      1.08753      .   S
    H70    C246      1.08867      .   S
    N296   C170      1.34983      .   S
    N296   C168      1.34993      .   S
    N296   Zn2       2.06245  1_554   S
    N297   C171      1.34923      .   S
    N297   C169      1.35004      .   S
    N297   Zn3       2.06300  1_554   S
    H69    C245      1.08868      .   S
    H68    C244      1.08866      .   S
    H74    C250      1.08903      .   S
    H75    C251      1.08895      .   S
    H72    C248      1.08921      .   S
    H34    C170      1.08819      .   S
    H35    C171      1.08760      .   S
    H32    C168      1.08814      .   S
    H73    C249      1.08965      .   S
    H33    C169      1.08818      .   S
    Zn7    O341      2.11512      .   S
    Zn7    O343      2.11474      .   S
    Zn7    O339      2.07752      .   S
    Zn7    O337      2.06607      .   S
    Zn7    N309      2.06072  1_554   S
    Zn6    O340      2.11420      .   S
    Zn6    O342      2.11468      .   S
    Zn6    O338      2.07853      .   S
    Zn6    O336      2.06901      .   S
    Zn6    N308      2.05924  1_554   S
    O340   C228      1.27690      .   S
    O341   C229      1.27671      .   S
    O343   C231      1.27735      .   S
    O342   C230      1.27725      .   S
    O338   C210      1.27450      .   S
    O339   C211      1.27455      .   S
    O337   C209      1.27572      .   S
    O336   C208      1.27567      .   S
    C270   C280      1.39402      .   S
    C270   C232      1.40318      .   S
    C271   C281      1.39399      .   S
    C271   C233      1.40318      .   S
    C272   C282      1.39372      .   S
    C272   C235      1.40350  1_455   S
    C273   C283      1.39365      .   S
    C273   C234      1.40325      .   S
    C280   C216      1.40570      .   S
    C170   C130      1.26264      .   S
    C281   C217      1.40571      .   S
    C168   C128      1.38961      .   S
    C171   C131      1.38995      .   S
    C282   C218      1.40577      .   S
    C283   C219      1.40573      .   S
    C169   C129      1.38959      .   S
    C247   C251      1.39041      .   S
    C247   C207      1.40117      .   S
    C246   C250      1.39041      .   S
    C246   C206      1.40010      .   S
    C245   C248      1.39044  1_655   S
    C245   C205      1.40034      .   S
    C250   C214      1.40406      .   S
    C251   C215      1.40394      .   S
    C244   C249      1.39013      .   S
    C244   C204      1.40033      .   S
    C248   C212      1.39349      .   S
    C249   C213      1.40399      .   S
    C229   C233      1.49853      .   S
    C229   O349      1.27728      .   S
    C228   C232      1.49864      .   S
    C228   O348      1.27712      .   S
    C231   C235      1.49932      .   S
    C231   O351      1.27644      .   S
    C230   C234      1.49914      .   S
    C230   O350      1.27656      .   S
    C232   C266      1.40316      .   S
    C233   C267      1.40305      .   S
    C235   C269      1.40319      .   S
    C234   C268      1.40203      .   S
    C210   C206      1.49632      .   S
    C210   O346      1.27771      .   S
    C211   C207      1.49620      .   S
    C211   O347      1.27773      .   S
    C216   C224      1.48504      .   S
    C216   C276      1.40591      .   S
    C217   C225      1.48492      .   S
    C217   C277      1.40571      .   S
    C209   C205      1.49651      .   S
    C209   O345      1.27717      .   S
    C206   C254      1.40384      .   S
    C208   C204      1.49653      .   S
    C208   O344      1.27732      .   S
    C207   C255      1.40383      .   S
    C218   C226      1.48518      .   S
    C218   C278      1.40581      .   S
    H64    C236      1.09098      .   S
    H65    C237      1.09101      .   S
    C219   C227      1.48501      .   S
    C219   C279      1.40581      .   S
    C205   C252      1.40398  1_655   S
    C224   C236      1.40136  1_545   S
    C224   C240      1.41464      .   S
    C236   C242      1.40187      .   S
    C237   C225      1.40129  1_565   S
    C237   C243      1.40183      .   S
    C225   C241      1.41453      .   S
    C242   C214      1.48289      .   S
    C242   C226      1.41449      .   S
    C212   C240      1.48277      .   S
    C212   C256      1.41728      .   S
    C204   C253      1.40366      .   S
    C243   C215      1.48279      .   S
    C243   C227      1.41447      .   S
    C214   C258      1.40598      .   S
    C215   C259      1.40595      .   S
    C226   C238      1.40157      .   S
    C240   C238      1.40228  1_545   S
    C227   C239      1.40152      .   S
    C238   H66       1.09097      .   S
    C241   C239      1.40219  1_545   S
    C241   C213      1.48293      .   S
    C239   H67       1.09097      .   S
    C213   C257      1.40591      .   S
    C130   H10       1.15284      .   S
    C130   C172      1.47035      .   S
    C128   H8        1.08821      .   S
    C128   C172      1.40209      .   S
    C131   H11       1.08804      .   S
    C131   C173      1.40220      .   S
    C129   H9        1.08836      .   S
    C129   C173      1.40216      .   S
    C266   C276      1.39010      .   S
    C266   H88       1.08904      .   S
    C267   C277      1.39002      .   S
    C267   H89       1.08903      .   S
    C269   C278      1.39085  1_655   S
    C269   H91       1.08913      .   S
    C268   C279      1.39066      .   S
    C268   H90       1.09020      .   S
    C276   H96       1.09104      .   S
    C277   H97       1.09114      .   S
    O351   Zn5       2.05337      .   S
    O349   Zn5       2.04491      .   S
    O348   Zn4       2.04502      .   S
    O350   Zn4       2.05270      .   S
    C278   H98       1.09030      .   S
    C279   H99       1.09113      .   S
    C256   C252      1.39212      .   S
    C256   H80       1.08997      .   S
    C258   C254      1.39174      .   S
    C258   H82       1.09015      .   S
    C252   H76       1.08950      .   S
    C254   H78       1.08945      .   S
    C259   C255      1.39175      .   S
    C259   H83       1.09021      .   S
    C255   H79       1.08945      .   S
    C257   C253      1.39220      .   S
    C257   H81       1.09030      .   S
    C253   H77       1.08957      .   S
    O347   Zn5       2.08327      .   S
    O346   Zn4       2.08383      .   S
    O345   Zn5       2.09006      .   S
    O344   Zn4       2.09013      .   S
    C172   C182      1.47147      .   S
    C173   C183      1.47182      .   S
    Zn5    N319      2.06394      .   S
    Zn4    N318      2.06628      .   S
    C182   N298      1.35681      .   S
    C182   N300      1.35708      .   S
    C183   N299      1.35681      .   S
    C183   N301      1.35711      .   S
    N298   N302      1.32438      .   S
    N299   N303      1.32454      .   S
    N300   N304      1.32546      .   S
    N301   N305      1.32542      .   S
    N319   C293      1.34876      .   S
    N319   C295      1.34877      .   S
    N318   C294      1.34254      .   S
    N318   C292      1.34880      .   S
    H109   C293      1.08958      .   S
    H108   C292      1.08960      .   S
    H111   C295      1.08984      .   S
    H110   C294      1.08299      .   S
    C294   C290      1.40141      .   S
    C293   C289      1.38896      .   S
    C292   C288      1.38885      .   S
    C295   C291      1.38889      .   S
    N302   C192      1.35339      .   S
    N303   C193      1.35343      .   S
    N304   C192      1.35325      .   S
    N305   C193      1.35335      .   S
    C192   C194      1.47429      .   S
    C193   C195      1.47519      .   S
    C289   H105      1.08560      .   S
    C289   C287      1.40234      .   S
    C291   H107      1.08554      .   S
    C291   C287      1.40271      .   S
    C288   H104      1.08500      .   S
    C288   C286      1.40234      .   S
    C290   H106      1.08560      .   S
    C290   C286      1.40263      .   S
    C287   C285      1.47648      .   S
    C286   C284      1.47653      .   S
    C194   C198      1.40332      .   S
    C194   C196      1.40260      .   S
    C195   C199      1.40236      .   S
    C195   C197      1.40235      .   S
    H54    C198      1.08673      .   S
    H55    C199      1.08596      .   S
    H52    C196      1.08647      .   S
    H53    C197      1.08645      .   S
    C198   C202      1.38909      .   S
    C199   C203      1.39077      .   S
    C196   C200      1.38873      .   S
    C197   C201      1.38894      .   S
    C285   N317      1.35360      .   S
    C285   N315      1.35363      .   S
    C284   N316      1.35356      .   S
    C284   N314      1.35371      .   S
    N317   N313      1.32537      .   S
    N316   N312      1.32548      .   S
    N315   N311      1.32462      .   S
    N314   N310      1.32457      .   S
    C202   H58       1.09013      .   S
    C202   N306      1.34898      .   S
    C203   H59       1.09016      .   S
    C203   N307      1.34907      .   S
    C200   H56       1.08973      .   S
    C200   N306      1.34905      .   S
    C201   H57       1.08975      .   S
    C201   N307      1.34913      .   S
    N306   Zn0       2.07122      .   S
    N307   Zn1       2.07626      .   S
    N313   C275      1.35663      .   S
    N312   C274      1.35656      .   S
    N311   C275      1.35664      .   S
    N310   C274      1.35659      .   S
    C275   C265      1.47207      .   S
    C274   C264      1.47207      .   S
    H46    C186      1.09113      .   S
    H47    C187      1.09103      .   S
    H24    C160      1.09058      .   S
    H25    C161      1.08962      .   S
    H45    C185      1.09102      .   S
    H27    C163      1.08954      .   S
    H31    C167      1.09014      .   S
    H44    C184      1.09109      .   S
    H29    C165      1.09009      .   S
    H28    C164      1.08977      .   S
    H26    C162      1.08958      .   S
    H30    C166      1.09018      .   S
    H38    C176      1.08918      .   S
    H39    C177      1.08904      .   S
    H36    C174      1.08901      .   S
    H37    C175      1.08897      .   S
    Zn0    O328      2.07653      .   S
    Zn0    O330      2.08362      .   S
    Zn0    O332      2.04616      .   S
    Zn0    O334      2.05092      .   S
    Zn1    O329      2.07816      .   S
    Zn1    O331      2.08475      .   S
    Zn1    O333      2.04370      .   S
    Zn1    O335      2.04692      .   S
    C265   C221      1.40202      .   S
    C265   C223      1.40198      .   S
    C264   C220      1.40197      .   S
    C264   C222      1.40200      .   S
    O328   C116      1.27795      .   S
    O329   C117      1.27765      .   S
    O330   C118      1.27779      .   S
    O331   C119      1.27818      .   S
    C160   C164      1.39201      .   S
    C160   C112      1.39771      .   S
    C161   C165      1.39198      .   S
    C161   C113      1.40386      .   S
    C164   C120      1.40649      .   S
    C165   C121      1.40600      .   S
    C167   C163      1.39162      .   S
    C167   C123      1.40595      .   S
    C163   C114      1.40408  1_655   S
    C166   C162      1.39170      .   S
    C166   C122      1.40595      .   S
    C162   C115      1.40385      .   S
    C186   C176      1.39052      .   S
    C186   C126      1.40585      .   S
    C187   C177      1.39040      .   S
    C187   C127      1.40579      .   S
    C185   C174      1.39034  1_655   S
    C185   C125      1.40583      .   S
    C184   C175      1.38989      .   S
    C184   C124      1.40566      .   S
    O332   C136      1.27653      .   S
    O334   C138      1.27652      .   S
    O333   C137      1.27645      .   S
    C176   C142      1.40295      .   S
    O335   C139      1.27656      .   S
    C177   C143      1.40294      .   S
    C174   C140      1.40318      .   S
    C175   C141      1.40307      .   S
    H61    C221      1.08849      .   S
    H60    C220      1.08845      .   S
    H63    C223      1.08847      .   S
    H62    C222      1.08819      .   S
    C221   C261      1.38944      .   S
    C220   C260      1.38945      .   S
    C223   C263      1.38899      .   S
    C222   C262      1.38880      .   S
    H14    C146      1.09098      .   S
    H15    C147      1.09097      .   S
    C120   C148      1.48299      .   S
    C120   C156      1.40408      .   S
    C121   C149      1.48270      .   S
    C121   C157      1.40410      .   S
    C146   C148      1.40191  1_545   S
    C146   C134      1.40157      .   S
    C147   C149      1.40207  1_545   S
    C147   C135      1.40141      .   S
    C149   C133      1.41462      .   S
    C148   C132      1.41447      .   S
    C135   C151      1.41438      .   S
    C135   C127      1.48510      .   S
    C134   C150      1.41451      .   S
    C134   C126      1.48483      .   S
    C151   C123      1.48229      .   S
    C151   C145      1.40177      .   S
    C123   C159      1.40387      .   S
    C145   C133      1.40131  1_545   S
    C145   H13       1.09096      .   S
    C133   C125      1.48519      .   S
    C112   C116      1.49583      .   S
    C112   C152      1.40636      .   S
    C150   C122      1.48280      .   S
    C150   C144      1.40174      .   S
    C122   C158      1.40412      .   S
    C132   C144      1.40134  1_565   S
    C132   C124      1.48467      .   S
    C144   H12       1.09097      .   S
    C113   C117      1.49574      .   S
    C113   C153      1.40018      .   S
    C126   C190      1.40569      .   S
    C127   C191      1.40594      .   S
    C116   O320      1.27515      .   S
    C114   C118      1.49514      .   S
    C114   C154      1.39989      .   S
    C125   C189      1.40581      .   S
    C117   O321      1.27540      .   S
    C124   C188      1.40581      .   S
    C115   C119      1.49587      .   S
    C115   C155      1.40001      .   S
    C118   O322      1.27425      .   S
    C119   O323      1.27439      .   S
    C142   C138      1.49875      .   S
    C142   C180      1.40327      .   S
    C140   C136      1.49880      .   S
    C140   C179      1.40354  1_455   S
    C143   C139      1.49873      .   S
    C143   C181      1.40335      .   S
    C141   C137      1.49801      .   S
    C141   C178      1.40326      .   S
    C136   O324      1.27674      .   S
    C138   O326      1.27666      .   S
    C137   O325      1.27693      .   S
    C139   O327      1.27664      .   S
    C156   C152      1.39036      .   S
    C156   H20       1.08915      .   S
    C157   C153      1.39030      .   S
    C157   H21       1.08929      .   S
    C159   C154      1.39028  1_655   S
    C159   H23       1.08898      .   S
    C152   H16       1.08864      .   S
    C153   H17       1.08879      .   S
    C158   C155      1.39041      .   S
    C158   H22       1.08904      .   S
    C154   H18       1.08874      .   S
    C155   H19       1.08873      .   S
    C190   C180      1.39354      .   S
    C190   H50       1.08971      .   S
    C189   C179      1.39404      .   S
    C189   H49       1.09013      .   S
    C191   C181      1.39376      .   S
    C191   H51       1.08992      .   S
    C261   H85       1.08826      .   S
    C261   N309      1.35014      .   S
    C188   C178      1.39383      .   S
    C188   H48       1.08994      .   S
    C263   H87       1.08819      .   S
    C263   N309      1.35004      .   S
    C260   H84       1.08826      .   S
    C260   N308      1.35012      .   S
    C262   H86       1.08830      .   S
    C262   N308      1.35000      .   S
    C179   H41       1.08944      .   S
    C180   H42       1.08937      .   S
    C178   H40       1.08945      .   S
    C181   H43       1.08943      .   S
    O320   Zn2       2.06635      .   S
    O321   Zn3       2.06849      .   S
    O322   Zn2       2.07155      .   S
    O323   Zn3       2.07673      .   S
    O324   Zn2       2.11719      .   S
    O325   Zn3       2.11351      .   S
    O326   Zn2       2.11872      .   S
    O327   Zn3       2.11884      .   S
    Zn0    Zn2       2.79798      .   S
    Zn1    Zn3       2.78949      .   S
    Zn4    Zn6       2.80727      .   S
    Zn5    Zn7       2.80815      .   S
