# CIF file generated by openbabel 2.4.90, see http://openbabel.sf.net
data_I
_chemical_name_common ''
_cell_length_a 8.75
_cell_length_b 12.597
_cell_length_c 12.598
_cell_angle_alpha 114.647
_cell_angle_beta 103.32
_cell_angle_gamma 103.37
_space_group_name_H-M_alt 'P 1'
_space_group_name_Hall 'P 1'
loop_
    _symmetry_equiv_pos_as_xyz
    x,y,z
loop_
    _atom_site_label
    _atom_site_type_symbol
    _atom_site_fract_x
    _atom_site_fract_y
    _atom_site_fract_z
    _atom_site_occupancy
    C0      C    0.01289   0.42603   0.62348   1.000
    C1      C    0.58699   0.19684   0.57411   1.000
    C2      C    0.38929   0.37600   0.80319   1.000
    C3      C    0.98713   0.57397   0.37649   1.000
    C4      C    0.41302   0.80317   0.42586   1.000
    C5      C    0.61072   0.62400   0.19678   1.000
    C6      C    0.96151   0.18476   0.90367   1.000
    C7      C    0.76474   0.13444   0.78218   1.000
    C8      C    0.96493   0.40354   0.00478   1.000
    C9      C    0.77857   0.35935   0.87891   1.000
    C10     C    0.62606   0.20513   0.93712   1.000
    C11     C    0.81215   0.27323   0.07549   1.000
    C12     C    0.77585   0.71693   0.81359   1.000
    C13     C    0.62980   0.64614   0.86490   1.000
    C14     C    0.56036   0.60075   0.59552   1.000
    C15     C    0.41854   0.51896   0.64028   1.000
    C16     C    0.42040   0.73069   0.79479   1.000
    C17     C    0.53801   0.80112   0.72610   1.000
    C18     C    0.06058   0.09807   0.28316   1.000
    C19     C    0.98506   0.21968   0.35402   1.000
    C20     C    0.96064   0.99535   0.39943   1.000
    C21     C    0.89972   0.12117   0.48086   1.000
    C22     C    0.69147   0.06500   0.26889   1.000
    C23     C    0.73927   0.92645   0.19887   1.000
    C24     C    0.03850   0.81524   0.09630   1.000
    C25     C    0.23528   0.86557   0.21779   1.000
    C26     C    0.03508   0.59646   0.99520   1.000
    C27     C    0.22144   0.64065   0.12107   1.000
    C28     C    0.37395   0.79487   0.06285   1.000
    C29     C    0.18786   0.72677   0.92449   1.000
    C30     C    0.22417   0.28307   0.18638   1.000
    C31     C    0.37021   0.35386   0.13507   1.000
    C32     C    0.43965   0.39925   0.40445   1.000
    C33     C    0.58148   0.48104   0.35969   1.000
    C34     C    0.57961   0.26932   0.20519   1.000
    C35     C    0.46200   0.19888   0.27387   1.000
    C36     C    0.93944   0.90193   0.71681   1.000
    C37     C    0.01496   0.78032   0.64595   1.000
    C38     C    0.03938   0.00465   0.60054   1.000
    C39     C    0.10029   0.87883   0.51911   1.000
    C40     C    0.30854   0.93500   0.73108   1.000
    C41     C    0.26074   0.07356   0.80110   1.000
    C42     C    0.97795   0.25442   0.77558   1.000
    C43     C    0.88376   0.21480   0.84865   1.000
    C44     C    0.84545   0.32546   0.93541   1.000
    C45     C    0.73822   0.29038   0.00533   1.000
    C46     C    0.67831   0.39467   0.06986   1.000
    C47     C    0.72231   0.51965   0.74450   1.000
    C48     C    0.66807   0.63232   0.78413   1.000
    C49     C    0.51911   0.60910   0.67387   1.000
    C50     C    0.44712   0.71398   0.70928   1.000
    C51     C    0.28301   0.67490   0.60544   1.000
    C52     C    0.20335   0.22484   0.48043   1.000
    C53     C    0.03701   0.15261   0.36779   1.000
    C54     C    0.91097   0.06528   0.39087   1.000
    C55     C    0.73477   0.99617   0.28584   1.000
    C56     C    0.60914   0.93113   0.32474   1.000
    C57     C    0.02206   0.74557   0.22438   1.000
    C58     C    0.11626   0.78520   0.15132   1.000
    C59     C    0.15456   0.67454   0.06456   1.000
    C60     C    0.26179   0.70962   0.99465   1.000
    C61     C    0.32170   0.60533   0.93011   1.000
    C62     C    0.27770   0.48035   0.25547   1.000
    C63     C    0.33194   0.36768   0.21584   1.000
    C64     C    0.48090   0.39091   0.32611   1.000
    C65     C    0.55290   0.28602   0.29069   1.000
    C66     C    0.71701   0.32510   0.39453   1.000
    C67     C    0.79667   0.77517   0.51954   1.000
    C68     C    0.96299   0.84738   0.63218   1.000
    C69     C    0.08904   0.93472   0.60910   1.000
    C70     C    0.26523   0.00383   0.71413   1.000
    C71     C    0.39088   0.06888   0.67523   1.000
    C72     C    0.89219   0.26736   0.68672   1.000
    C73     C    0.13478   0.27697   0.80851   1.000
    C74     C    0.55676   0.40889   0.00591   1.000
    C75     C    0.75151   0.47022   0.18834   1.000
    C76     C    0.62361   0.41811   0.73195   1.000
    C77     C    0.85649   0.52981   0.72163   1.000
    C78     C    0.14754   0.59661   0.59136   1.000
    C79     C    0.28042   0.71880   0.53022   1.000
    C80     C    0.20595   0.31346   0.58184   1.000
    C81     C    0.32710   0.19145   0.47033   1.000
    C82     C    0.55276   0.99509   0.40382   1.000
    C83     C    0.56130   0.81208   0.27988   1.000
    C84     C    0.10782   0.73264   0.31325   1.000
    C85     C    0.86523   0.72303   0.19146   1.000
    C86     C    0.44325   0.59111   0.99406   1.000
    C87     C    0.24850   0.52978   0.81163   1.000
    C88     C    0.37640   0.58190   0.26802   1.000
    C89     C    0.14352   0.47019   0.27834   1.000
    C90     C    0.85247   0.40339   0.40861   1.000
    C91     C    0.71960   0.28120   0.46975   1.000
    C92     C    0.79406   0.68654   0.41812   1.000
    C93     C    0.67291   0.80855   0.52964   1.000
    C94     C    0.44726   0.00491   0.59615   1.000
    C95     C    0.43871   0.18792   0.72010   1.000
    O96     O    0.90519   0.36450   0.97009   1.000
    O97     O    0.70827   0.34253   0.03760   1.000
    O98     O    0.77519   0.28181   0.04041   1.000
    O99     O    0.79183   0.30792   0.97037   1.000
    O100    O    0.68214   0.24775   0.97123   1.000
    O101    O    0.61754   0.40178   0.03789   1.000
    O102    O    0.31787   0.75225   0.02875   1.000
    O103    O    0.18800   0.65760   0.09281   1.000
    O104    O    0.13541   0.72987   0.10794   1.000
    O105    O    0.20818   0.69208   0.02960   1.000
    O106    O    0.09482   0.63550   0.02988   1.000
    O107    O    0.71491   0.43244   0.12910   1.000
    O108    O    0.07738   0.80022   0.12381   1.000
    O109    O    0.35108   0.36077   0.17546   1.000
    O110    O    0.17577   0.82539   0.18456   1.000
    O111    O    0.06916   0.76539   0.18785   1.000
    O112    O    0.27805   0.32538   0.20111   1.000
    O113    O    0.86932   0.52210   0.28242   1.000
    O114    O    0.73798   0.67351   0.19412   1.000
    O115    O    0.94365   0.73430   0.20792   1.000
    O116    O    0.58601   0.71804   0.23833   1.000
    O117    O    0.73702   0.96131   0.24236   1.000
    O118    O    0.56625   0.27767   0.24794   1.000
    O119    O    0.30482   0.42402   0.23566   1.000
    O120    O    0.40642   0.37929   0.27097   1.000
    O121    O    0.06494   0.73911   0.26882   1.000
    O122    O    0.32705   0.53112   0.26175   1.000
    O123    O    0.21061   0.47527   0.26690   1.000
    O124    O    0.71312   0.03058   0.27737   1.000
    O125    O    0.50745   0.24245   0.28228   1.000
    O126    O    0.06532   0.52208   0.32742   1.000
    O127    O    0.58522   0.87160   0.30231   1.000
    O128    O    0.04879   0.12534   0.32548   1.000
    O129    O    0.67196   0.96365   0.30529   1.000
    O130    O    0.82287   0.03073   0.33836   1.000
    O131    O    0.51690   0.33846   0.30840   1.000
    O132    O    0.63495   0.30556   0.34261   1.000
    O133    O    0.58095   0.96311   0.36428   1.000
    O134    O    0.53119   0.43597   0.34290   1.000
    O135    O    0.46028   0.39508   0.36528   1.000
    O136    O    0.01104   0.18615   0.36091   1.000
    O137    O    0.97399   0.10895   0.37933   1.000
    O138    O    0.12018   0.18872   0.42411   1.000
    O139    O    0.93580   0.03032   0.39515   1.000
    O140    O    0.90535   0.09323   0.43587   1.000
    O141    O    0.78474   0.36424   0.40157   1.000
    O142    O    0.71830   0.30315   0.43214   1.000
    O143    O    0.79536   0.73086   0.46883   1.000
    O144    O    0.54297   0.80586   0.47775   1.000
    O145    O    0.34672   0.76098   0.47804   1.000
    O146    O    0.65329   0.23902   0.52193   1.000
    O147    O    0.26523   0.20814   0.47538   1.000
    O148    O    0.45704   0.19414   0.52222   1.000
    O149    O    0.20465   0.26915   0.53114   1.000
    O150    O    0.09466   0.90677   0.56411   1.000
    O151    O    0.73479   0.79186   0.52459   1.000
    O152    O    0.87983   0.81128   0.57586   1.000
    O153    O    0.28171   0.69685   0.56783   1.000
    O154    O    0.21527   0.63576   0.59840   1.000
    O155    O    0.53974   0.60492   0.63470   1.000
    O156    O    0.41907   0.03690   0.63569   1.000
    O157    O    0.06421   0.96968   0.60482   1.000
    O158    O    0.36506   0.69444   0.65736   1.000
    O159    O    0.02602   0.89105   0.62064   1.000
    O160    O    0.17714   0.96928   0.66161   1.000
    O161    O    0.93469   0.47792   0.67256   1.000
    O162    O    0.13070   0.47791   0.71755   1.000
    O163    O    0.98898   0.81385   0.63907   1.000
    O164    O    0.95121   0.87466   0.67450   1.000
    O165    O    0.46882   0.56403   0.65707   1.000
    O166    O    0.48311   0.66154   0.69157   1.000
    O167    O    0.59359   0.62071   0.72900   1.000
    O168    O    0.32805   0.03636   0.69468   1.000
    O169    O    0.41480   0.12840   0.69766   1.000
    O170    O    0.93507   0.26089   0.73115   1.000
    O171    O    0.49256   0.75755   0.71769   1.000
    O172    O    0.43376   0.72233   0.75203   1.000
    O173    O    0.28689   0.96942   0.72260   1.000
    O174    O    0.26299   0.03870   0.75762   1.000
    O175    O    0.41400   0.28196   0.76164   1.000
    O176    O    0.78940   0.52473   0.73307   1.000
    O177    O    0.67296   0.46888   0.73823   1.000
    O178    O    0.69519   0.57598   0.76431   1.000
    O179    O    0.05636   0.26570   0.79205   1.000
    O180    O    0.93085   0.23461   0.81212   1.000
    O181    O    0.82425   0.17462   0.81542   1.000
    O182    O    0.72196   0.67463   0.79886   1.000
    O183    O    0.64894   0.63923   0.82452   1.000
    O184    O    0.26204   0.32649   0.80585   1.000
    O185    O    0.28510   0.56756   0.87087   1.000
    O186    O    0.92263   0.19978   0.87616   1.000
    O187    O    0.86460   0.27013   0.89203   1.000
    O188    O    0.81201   0.34241   0.90716   1.000
    O189    O    0.22483   0.71820   0.95957   1.000
    O190    O    0.38247   0.59822   0.96209   1.000
    O191    O    0.29175   0.65747   0.96238   1.000
    O192    O    0.95254   0.34670   0.65510   1.000
    O193    O    0.73959   0.23210   0.63041   1.000
    O194    O    0.47303   0.39245   0.90455   1.000
    O195    O    0.58374   0.51644   0.10135   1.000
    O196    O    0.68112   0.54711   0.19256   1.000
    O197    O    0.60530   0.30747   0.65303   1.000
    O198    O    0.50645   0.39706   0.76757   1.000
    O199    O    0.08022   0.51132   0.60742   1.000
    O200    O    0.06733   0.58529   0.48393   1.000
    O201    O    0.13377   0.64639   0.45336   1.000
    O202    O    0.10942   0.36975   0.60266   1.000
    O203    O    0.29762   0.34473   0.69252   1.000
    O204    O    0.56987   0.09596   0.48896   1.000
    O205    O    0.48289   0.89913   0.41484   1.000
    O206    O    0.48716   0.80762   0.35287   1.000
    O207    O    0.04747   0.65331   0.34487   1.000
    O208    O    0.26042   0.76790   0.36956   1.000
    O209    O    0.41627   0.48356   0.89863   1.000
    O210    O    0.52698   0.60755   0.09542   1.000
    O211    O    0.31889   0.45289   0.80741   1.000
    O212    O    0.39471   0.69253   0.34694   1.000
    O213    O    0.49356   0.60295   0.23240   1.000
    O214    O    0.93268   0.41471   0.51605   1.000
    O215    O    0.91980   0.48868   0.39255   1.000
    O216    O    0.86624   0.35362   0.54661   1.000
    O217    O    0.89059   0.63026   0.39731   1.000
    O218    O    0.70239   0.65527   0.30745   1.000
    O219    O    0.51712   0.10087   0.58513   1.000
    O220    O    0.43014   0.90404   0.51101   1.000
    O221    O    0.51285   0.19238   0.64710   1.000
loop_
    _geom_bond_atom_site_label_1
    _geom_bond_atom_site_label_2
    _geom_bond_distance
    _geom_bond_site_symmetry_2
    _ccdc_geom_bond_type
    C8     O96       0.55015  1_554   S
    C44    O96       0.55015      .   S
    C45    O97       0.75591      .   S
    C46    O97       0.75591      .   S
    C45    O98       0.54928      .   S
    C11    O98       0.54928      .   S
    C45    O99       0.76895  1_554   S
    C44    O99       0.76895      .   S
    C45    O100      0.54981  1_554   S
    C10    O100      0.54981      .   S
    C74    O101      0.63756      .   S
    C46    O101      0.63756      .   S
    C28    O102      0.54981      .   S
    C60    O102      0.54981  1_556   S
    C59    O103      0.54963      .   S
    C27    O103      0.54963      .   S
    C59    O104      0.76882      .   S
    C58    O104      0.76882      .   S
    C59    O105      0.76895      .   S
    C60    O105      0.76895  1_556   S
    C59    O106      0.55015      .   S
    C26    O106      0.55015  1_556   S
    C46    O107      0.63967      .   S
    C75    O107      0.63967      .   S
    C24    O108      0.54933      .   S
    C58    O108      0.54933      .   S
    C31    O109      0.55093      .   S
    C63    O109      0.55093      .   S
    C58    O110      0.55094      .   S
    C25    O110      0.55094      .   S
    C58    O111      0.76129      .   S
    C57    O111      0.76129      .   S
    C30    O112      0.54933      .   S
    C63    O112      0.54933      .   S
    C75    O113      1.17209      .   S
    C3     O113      1.17209      .   S
    C85    O114      1.15908      .   S
    C5     O114      1.15908      .   S
    C85    O115      0.63148      .   S
    C57    O115      0.63148  1_455   S
    C5     O116      1.17368      .   S
    C83    O116      1.17368      .   S
    C23    O117      0.54925      .   S
    C55    O117      0.54925      .   S
    C34    O118      0.54980      .   S
    C65    O118      0.54980      .   S
    C63    O119      0.76134      .   S
    C62    O119      0.76134      .   S
    C63    O120      0.76884      .   S
    C64    O120      0.76884      .   S
    C57    O121      0.64508      .   S
    C84    O121      0.64508      .   S
    C62    O122      0.64512      .   S
    C88    O122      0.64512      .   S
    C62    O123      0.63143      .   S
    C89    O123      0.63143      .   S
    C22    O124      0.55001      .   S
    C55    O124      0.55001  1_565   S
    C35    O125      0.54927      .   S
    C65    O125      0.54927      .   S
    C89    O126      1.15864      .   S
    C3     O126      1.15864  1_655   S
    C83    O127      0.63977      .   S
    C56    O127      0.63977      .   S
    C18    O128      0.54934      .   S
    C53    O128      0.54934      .   S
    C55    O129      0.75606      .   S
    C56    O129      0.75606      .   S
    C55    O130      0.76879  1_565   S
    C54    O130      0.76879      .   S
    C65    O131      0.76883      .   S
    C64    O131      0.76883      .   S
    C65    O132      0.75599      .   S
    C66    O132      0.75599      .   S
    C56    O133      0.63755      .   S
    C82    O133      0.63755      .   S
    C64    O134      0.54962      .   S
    C33    O134      0.54962      .   S
    C64    O135      0.55013      .   S
    C32    O135      0.55013      .   S
    C19    O136      0.55093  1_655   S
    C53    O136      0.55093      .   S
    C53    O137      0.76885  1_455   S
    C54    O137      0.76885      .   S
    C53    O138      0.76138      .   S
    C52    O138      0.76138      .   S
    C54    O139      0.55028      .   S
    C20    O139      0.55028  1_565   S
    C54    O140      0.54962      .   S
    C21    O140      0.54962      .   S
    C66    O141      0.63750      .   S
    C90    O141      0.63750      .   S
    C66    O142      0.63971      .   S
    C91    O142      0.63971      .   S
    C92    O143      0.64509      .   S
    C67    O143      0.64509      .   S
    C4     O144      1.15864      .   S
    C93    O144      1.15864      .   S
    C4     O145      1.17287      .   S
    C79    O145      1.17287      .   S
    C91    O146      1.17288      .   S
    C1     O146      1.17288      .   S
    C81    O147      0.63147      .   S
    C52    O147      0.63147      .   S
    C81    O148      1.15864      .   S
    C1     O148      1.15864      .   S
    C52    O149      0.64509      .   S
    C80    O149      0.64509      .   S
    C39    O150      0.54962      .   S
    C69    O150      0.54962      .   S
    C67    O151      0.63148      .   S
    C93    O151      0.63148      .   S
    C67    O152      0.76138      .   S
    C68    O152      0.76138      .   S
    C79    O153      0.63972      .   S
    C51    O153      0.63972      .   S
    C78    O154      0.63750      .   S
    C51    O154      0.63750      .   S
    C14    O155      0.55014      .   S
    C49    O155      0.55014      .   S
    C94    O156      0.63754      .   S
    C71    O156      0.63754      .   S
    C38    O157      0.55028  1_545   S
    C69    O157      0.55028      .   S
    C51    O158      0.75599      .   S
    C50    O158      0.75599      .   S
    C69    O159      0.76890      .   S
    C68    O159      0.76890  1_655   S
    C69    O160      0.76877      .   S
    C70    O160      0.76877  1_545   S
    C0     O161      1.15866  1_455   S
    C77    O161      1.15866      .   S
    C0     O162      1.17208      .   S
    C87    O162      1.17208      .   S
    C68    O163      0.55093      .   S
    C37    O163      0.55093  1_455   S
    C68    O164      0.54933      .   S
    C36    O164      0.54933      .   S
    C15    O165      0.54963      .   S
    C49    O165      0.54963      .   S
    C49    O166      0.76883      .   S
    C50    O166      0.76883      .   S
    C49    O167      0.76885      .   S
    C48    O167      0.76885      .   S
    C71    O168      0.75606      .   S
    C70    O168      0.75606      .   S
    C71    O169      0.63978      .   S
    C95    O169      0.63978      .   S
    C72    O170      0.64508      .   S
    C42    O170      0.64508      .   S
    C50    O171      0.54927      .   S
    C17    O171      0.54927      .   S
    C50    O172      0.54980      .   S
    C16    O172      0.54980      .   S
    C70    O173      0.55001  1_545   S
    C40    O173      0.55001      .   S
    C70    O174      0.54925      .   S
    C41    O174      0.54925      .   S
    C95    O175      1.17368      .   S
    C2     O175      1.17368      .   S
    C77    O176      0.63143      .   S
    C47    O176      0.63143      .   S
    C76    O177      0.64511      .   S
    C47    O177      0.64511      .   S
    C47    O178      0.76134      .   S
    C48    O178      0.76134      .   S
    C42    O179      0.63148  1_655   S
    C73    O179      0.63148      .   S
    C42    O180      0.76129      .   S
    C43    O180      0.76129      .   S
    C7     O181      0.55094      .   S
    C43    O181      0.55094      .   S
    C48    O182      0.54933      .   S
    C12    O182      0.54933      .   S
    C48    O183      0.55092      .   S
    C13    O183      0.55092      .   S
    C2     O184      1.15907      .   S
    C73    O184      1.15907      .   S
    C87    O185      0.63967      .   S
    C61    O185      0.63967      .   S
    C43    O186      0.54933      .   S
    C6     O186      0.54933      .   S
    C43    O187      0.76881      .   S
    C44    O187      0.76881      .   S
    C9     O188      0.54963      .   S
    C44    O188      0.54963      .   S
    C29    O189      0.54929      .   S
    C60    O189      0.54929      .   S
    C61    O190      0.63756      .   S
    C86    O190      0.63756      .   S
    C61    O191      0.75591      .   S
    C60    O191      0.75591      .   S
    C72    O192      1.27324      .   S
    C0     O192      1.27324  1_455   S
    C72    O193      1.22877      .   S
    C1     O193      1.22877      .   S
    C74    O194      1.22002  1_554   S
    C2     O194      1.22002      .   S
    C74    O195      1.30368      .   S
    C5     O195      1.30368      .   S
    C75    O196      1.25239      .   S
    C5     O196      1.25239      .   S
    C76    O197      1.27443      .   S
    C1     O197      1.27443      .   S
    C76    O198      1.22805      .   S
    C2     O198      1.22805      .   S
    C78    O199      1.21897      .   S
    C0     O199      1.21897      .   S
    C78    O200      1.30371      .   S
    C3     O200      1.30371  1_655   S
    C79    O201      1.25126      .   S
    C3     O201      1.25126  1_655   S
    C80    O202      1.22833      .   S
    C0     O202      1.22833      .   S
    C80    O203      1.27397      .   S
    C2     O203      1.27397      .   S
    C82    O204      1.22018  1_565   S
    C1     O204      1.22018      .   S
    C82    O205      1.30060      .   S
    C4     O205      1.30060      .   S
    C83    O206      1.25327      .   S
    C4     O206      1.25327      .   S
    C84    O207      1.27325      .   S
    C3     O207      1.27325  1_655   S
    C84    O208      1.22877      .   S
    C4     O208      1.22877      .   S
    C86    O209      1.30367      .   S
    C2     O209      1.30367      .   S
    C86    O210      1.22002  1_556   S
    C5     O210      1.22002      .   S
    C87    O211      1.25238      .   S
    C2     O211      1.25238      .   S
    C88    O212      1.27443      .   S
    C4     O212      1.27443      .   S
    C88    O213      1.22804      .   S
    C5     O213      1.22804      .   S
    C90    O214      1.30373      .   S
    C0     O214      1.30373  1_455   S
    C90    O215      1.21897      .   S
    C3     O215      1.21897      .   S
    C91    O216      1.25128      .   S
    C0     O216      1.25128  1_455   S
    C92    O217      1.22834      .   S
    C3     O217      1.22834      .   S
    C92    O218      1.27395      .   S
    C5     O218      1.27395      .   S
    C94    O219      1.30062      .   S
    C1     O219      1.30062      .   S
    C94    O220      1.22018  1_545   S
    C4     O220      1.22018      .   S
    C95    O221      1.25326      .   S
    C1     O221      1.25326      .   S
