# CIF file generated by openbabel 2.4.90, see http://openbabel.sf.net
data_I
_chemical_name_common ''
_cell_length_a 10.118
_cell_length_b 11.5265
_cell_length_c 14.927
_cell_angle_alpha 91.151
_cell_angle_beta 90.01
_cell_angle_gamma 90.045
_space_group_name_H-M_alt 'P 1'
_space_group_name_Hall 'P 1'
loop_
    _symmetry_equiv_pos_as_xyz
    x,y,z
loop_
    _atom_site_label
    _atom_site_type_symbol
    _atom_site_fract_x
    _atom_site_fract_y
    _atom_site_fract_z
    _atom_site_occupancy
    H0      H    0.24231   0.85691   0.37124   1.000
    H1      H    0.94679   0.47271   0.26882   1.000
    H2      H    0.39010   0.56200   0.04450   1.000
    H3      H    0.79085   0.98134   0.23097   1.000
    H4      H    0.83722   0.68913   0.92244   1.000
    H5      H    0.29120   0.00246   0.01252   1.000
    H6      H    0.74212   0.64336   0.12874   1.000
    H7      H    0.44774   0.02734   0.23113   1.000
    H8      H    0.89019   0.93856   0.45543   1.000
    H9      H    0.29065   0.51854   0.26902   1.000
    H10     H    0.33677   0.81059   0.57729   1.000
    H11     H    0.79115   0.49824   0.48801   1.000
    H12     H    0.75766   0.14309   0.62875   1.000
    H13     H    0.05319   0.52728   0.73117   1.000
    H14     H    0.60987   0.43798   0.95551   1.000
    H15     H    0.20911   0.01865   0.76902   1.000
    H16     H    0.16275   0.31086   0.07755   1.000
    H17     H    0.70877   0.99753   0.98748   1.000
    H18     H    0.25785   0.35663   0.87125   1.000
    H19     H    0.55222   0.97264   0.76887   1.000
    H20     H    0.10978   0.06144   0.54455   1.000
    H21     H    0.70932   0.48145   0.73098   1.000
    H22     H    0.66319   0.18940   0.42270   1.000
    H23     H    0.20882   0.50173   0.51197   1.000
    C24     C    0.16092   0.82453   0.32834   1.000
    C25     C    0.97454   0.51856   0.20722   1.000
    C26     C    0.28254   0.57655   0.05151   1.000
    C27     C    0.86377   0.95219   0.18001   1.000
    C28     C    0.89823   0.74302   0.96822   1.000
    C29     C    0.27320   0.92974   0.05776   1.000
    C30     C    0.66078   0.67562   0.17166   1.000
    C31     C    0.47501   0.98146   0.29279   1.000
    C32     C    0.78265   0.92371   0.44845   1.000
    C33     C    0.36365   0.54775   0.31996   1.000
    C34     C    0.39805   0.75679   0.53169   1.000
    C35     C    0.77313   0.57064   0.44249   1.000
    C36     C    0.83905   0.17544   0.67166   1.000
    C37     C    0.02538   0.48143   0.79276   1.000
    C38     C    0.71743   0.42344   0.94849   1.000
    C39     C    0.13620   0.04779   0.81999   1.000
    C40     C    0.10173   0.25697   0.03178   1.000
    C41     C    0.72677   0.07025   0.94223   1.000
    C42     C    0.33919   0.32437   0.82833   1.000
    C43     C    0.52498   0.01853   0.70720   1.000
    C44     C    0.21732   0.07631   0.55151   1.000
    C45     C    0.63632   0.45224   0.68003   1.000
    C46     C    0.60191   0.24320   0.46829   1.000
    C47     C    0.22683   0.42932   0.55749   1.000
    O48     O    0.18982   0.80064   0.24629   1.000
    O49     O    0.04901   0.81523   0.36420   1.000
    O50     O    0.97875   0.63000   0.21445   1.000
    O51     O    0.99935   0.45952   0.13808   1.000
    O52     O    0.24856   0.65089   0.11292   1.000
    O53     O    0.20677   0.51988   0.00059   1.000
    O54     O    0.91208   0.85046   0.19154   1.000
    O55     O    0.88970   0.02021   0.11809   1.000
    O56     O    0.97225   0.68556   0.02234   1.000
    O57     O    0.88880   0.85071   0.96401   1.000
    O58     O    0.15202   0.89609   0.06349   1.000
    O59     O    0.37110   0.88898   0.09803   1.000
    O60     O    0.68971   0.69939   0.25373   1.000
    O61     O    0.54886   0.68485   0.13579   1.000
    O62     O    0.47903   0.87003   0.28558   1.000
    O63     O    0.49946   0.04051   0.36203   1.000
    O64     O    0.74872   0.84922   0.38709   1.000
    O65     O    0.70685   0.98017   0.49939   1.000
    O66     O    0.41196   0.64956   0.30845   1.000
    O67     O    0.38966   0.47974   0.38185   1.000
    O68     O    0.47212   0.81437   0.47763   1.000
    O69     O    0.38877   0.64909   0.53601   1.000
    O70     O    0.65196   0.60411   0.43665   1.000
    O71     O    0.87101   0.61127   0.40207   1.000
    O72     O    0.81015   0.19936   0.75370   1.000
    O73     O    0.95096   0.18478   0.63579   1.000
    O74     O    0.02124   0.36999   0.78556   1.000
    O75     O    0.00064   0.54047   0.86192   1.000
    O76     O    0.75141   0.34910   0.88708   1.000
    O77     O    0.79320   0.48010   0.99941   1.000
    O78     O    0.08789   0.14953   0.80846   1.000
    O79     O    0.11026   0.97978   0.88191   1.000
    O80     O    0.02773   0.31443   0.97765   1.000
    O81     O    0.11117   0.14928   0.03598   1.000
    O82     O    0.84795   0.10390   0.93651   1.000
    O83     O    0.62887   0.11101   0.90197   1.000
    O84     O    0.31026   0.30059   0.74627   1.000
    O85     O    0.45111   0.31514   0.86421   1.000
    O86     O    0.52094   0.12996   0.71442   1.000
    O87     O    0.50049   0.95948   0.63796   1.000
    O88     O    0.25126   0.15076   0.61292   1.000
    O89     O    0.29313   0.01980   0.50062   1.000
    O90     O    0.58800   0.35043   0.69154   1.000
    O91     O    0.61030   0.52024   0.61815   1.000
    O92     O    0.52786   0.18562   0.52237   1.000
    O93     O    0.61120   0.35090   0.46399   1.000
    O94     O    0.34801   0.39588   0.56335   1.000
    O95     O    0.12896   0.38871   0.59794   1.000
loop_
    _geom_bond_atom_site_label_1
    _geom_bond_atom_site_label_2
    _geom_bond_distance
    _geom_bond_site_symmetry_2
    _ccdc_geom_bond_type
    O53    C26       1.25342      .   S
    H5     C29       1.10202  1_545   S
    O56    C28       1.29393  1_554   S
    C40    O81       1.24784      .   S
    C40    H16       1.10274      .   S
    C40    O80       1.29392  1_554   S
    H2     C26       1.10589      .   S
    C26    O52       1.28913      .   S
    C29    O58       1.28908      .   S
    C29    O59       1.25500      .   S
    O55    C27       1.25166  1_545   S
    H6     C30       1.10327      .   S
    O61    C30       1.25805      .   S
    O51    C25       1.25049      .   S
    C30    O60       1.28364      .   S
    C27    O54       1.28558      .   S
    C27    H3        1.10736      .   S
    C25    O50       1.28756      .   S
    C25    H1        1.10583      .   S
    H7     C31       1.10585  1_545   S
    O48    C24       1.28369      .   S
    H9     C33       1.10739      .   S
    O62    C31       1.28747      .   S
    C31    O63       1.25064  1_565   S
    O66    C33       1.28564      .   S
    C33    O67       1.25153      .   S
    C24    O49       1.25802      .   S
    C24    H0        1.10328      .   S
    O64    C32       1.28922      .   S
    O71    C35       1.25497      .   S
    H22    C46       1.10271      .   S
    O70    C35       1.28903      .   S
    C35    H11       1.10197      .   S
    C32    H8        1.10593      .   S
    C32    O65       1.25335      .   S
    O93    C46       1.24785      .   S
    C46    O92       1.29395      .   S
    O68    C34       1.29395      .   S
    O89    C44       1.25336      .   S
    H23    C47       1.10196      .   S
    C34    O69       1.24785      .   S
    C34    H10       1.10272      .   S
    H20    C44       1.10593      .   S
    C44    O88       1.28923      .   S
    C47    O94       1.28904      .   S
    C47    O95       1.25497      .   S
    O91    C45       1.25154      .   S
    H12    C36       1.10329      .   S
    O73    C36       1.25803      .   S
    O87    C43       1.25068  1_565   S
    C36    O72       1.28369      .   S
    C45    O90       1.28562      .   S
    C45    H21       1.10739      .   S
    C43    O86       1.28746      .   S
    C43    H19       1.10584  1_545   S
    H13    C37       1.10583      .   S
    O84    C42       1.28364      .   S
    H15    C39       1.10735      .   S
    O74    C37       1.28757      .   S
    C37    O75       1.25049      .   S
    O78    C39       1.28559      .   S
    C39    O79       1.25165  1_545   S
    C42    O85       1.25804      .   S
    C42    H18       1.10328      .   S
    O76    C38       1.28914      .   S
    O83    C41       1.25498      .   S
    H4     C28       1.10274      .   S
    O82    C41       1.28909      .   S
    C41    H17       1.10200  1_545   S
    C38    H14       1.10587      .   S
    C38    O77       1.25342      .   S
    O57    C28       1.24784      .   S
