# CIF file generated by openbabel 2.4.90, see http://openbabel.sf.net
data_I
_chemical_name_common ''
_cell_length_a 17.005
_cell_length_b 18.735
_cell_length_c 19.368
_cell_angle_alpha 90.005
_cell_angle_beta 90.013
_cell_angle_gamma 101.51
_space_group_name_H-M_alt 'P 1'
_space_group_name_Hall 'P 1'
loop_
    _symmetry_equiv_pos_as_xyz
    x,y,z
loop_
    _atom_site_label
    _atom_site_type_symbol
    _atom_site_fract_x
    _atom_site_fract_y
    _atom_site_fract_z
    _atom_site_occupancy
    Cd0     Cd   0.65251   0.99308   0.05730   1.000
    Cd1     Cd   0.34732   0.50697   0.55731   1.000
    Cd2     Cd   0.84729   0.50694   0.55731   1.000
    Cd3     Cd   0.34732   0.00694   0.94280   1.000
    Cd4     Cd   0.84736   0.00692   0.94280   1.000
    Cd5     Cd   0.15253   0.49305   0.44279   1.000
    Cd6     Cd   0.65256   0.49307   0.44279   1.000
    H7      H    0.42471   0.30203   0.42263   1.000
    H8      H    0.92465   0.30192   0.42265   1.000
    H9      H    0.39754   0.20631   0.33068   1.000
    H10     H    0.89759   0.20631   0.33059   1.000
    H11     H    0.22819   0.38951   0.34124   1.000
    H12     H    0.72823   0.38950   0.34119   1.000
    H13     H    0.35259   0.11803   0.26098   1.000
    H14     H    0.85259   0.11799   0.26093   1.000
    H15     H    0.30206   0.02932   0.16857   1.000
    H16     H    0.80202   0.02927   0.16854   1.000
    H17     H    0.14127   0.15252   0.09908   1.000
    H18     H    0.64119   0.15246   0.09910   1.000
    H19     H    0.18325   0.24632   0.19024   1.000
    H20     H    0.68324   0.24629   0.19021   1.000
    H21     H    0.07658   0.56925   0.76663   1.000
    H22     H    0.57658   0.56929   0.76657   1.000
    H23     H    0.12450   0.66265   0.85847   1.000
    H24     H    0.62452   0.66265   0.85844   1.000
    H25     H    0.38627   0.68268   0.72288   1.000
    H26     H    0.88632   0.68269   0.72281   1.000
    H27     H    0.12290   0.72228   0.95741   1.000
    H28     H    0.62292   0.72229   0.95741   1.000
    H29     H    0.16172   0.82681   0.03757   1.000
    H30     H    0.66165   0.82678   0.03763   1.000
    H31     H    0.03673   0.95508   0.92280   1.000
    Cd32    Cd   0.15255   0.99309   0.05731   1.000
    H33     H    0.53669   0.95507   0.92288   1.000
    H34     H    0.49188   0.85552   0.83893   1.000
    H35     H    0.99186   0.85552   0.83891   1.000
    H36     H    0.07518   0.19802   0.92253   1.000
    H37     H    0.57517   0.19800   0.92255   1.000
    H38     H    0.10226   0.29368   0.83054   1.000
    H39     H    0.60228   0.29369   0.83059   1.000
    H40     H    0.27173   0.11057   0.84119   1.000
    H41     H    0.77170   0.11054   0.84119   1.000
    H42     H    0.14730   0.38205   0.76091   1.000
    H43     H    0.64727   0.38204   0.76094   1.000
    H44     H    0.19790   0.47077   0.66856   1.000
    H45     H    0.69784   0.47074   0.66857   1.000
    H46     H    0.35866   0.34752   0.59915   1.000
    H47     H    0.85862   0.34751   0.59916   1.000
    H48     H    0.31655   0.25368   0.69021   1.000
    H49     H    0.81657   0.25370   0.69020   1.000
    H50     H    0.42340   0.93077   0.26662   1.000
    H51     H    0.92350   0.93085   0.26670   1.000
    H52     H    0.37546   0.83741   0.35844   1.000
    H53     H    0.87551   0.83745   0.35850   1.000
    H54     H    0.11356   0.81721   0.22283   1.000
    H55     H    0.61365   0.81733   0.22293   1.000
    H56     H    0.37699   0.77776   0.45736   1.000
    H57     H    0.87703   0.77778   0.45738   1.000
    H58     H    0.33821   0.67327   0.53756   1.000
    H59     H    0.83814   0.67329   0.53755   1.000
    H60     H    0.46317   0.54496   0.42284   1.000
    H61     H    0.96314   0.54495   0.42291   1.000
    H62     H    0.00805   0.64447   0.33899   1.000
    H63     H    0.50805   0.64451   0.33895   1.000
    H64     H    0.07511   0.69802   0.57750   1.000
    H65     H    0.57518   0.69805   0.57748   1.000
    H66     H    0.10230   0.79368   0.66955   1.000
    H67     H    0.60226   0.79369   0.66951   1.000
    H68     H    0.27169   0.61053   0.65880   1.000
    H69     H    0.77167   0.61054   0.65889   1.000
    H70     H    0.14735   0.88199   0.73912   1.000
    H71     H    0.64728   0.88203   0.73918   1.000
    H72     H    0.19789   0.97073   0.83150   1.000
    H73     H    0.69790   0.97076   0.83155   1.000
    H74     H    0.35867   0.84753   0.90103   1.000
    H75     H    0.85872   0.84754   0.90097   1.000
    H76     H    0.31664   0.75369   0.80992   1.000
    H77     H    0.81660   0.75370   0.80987   1.000
    H78     H    0.42327   0.43071   0.23358   1.000
    H79     H    0.92332   0.43074   0.23355   1.000
    H80     H    0.37533   0.33735   0.14172   1.000
    H81     H    0.87534   0.33738   0.14169   1.000
    H82     H    0.11359   0.31728   0.27724   1.000
    H83     H    0.61359   0.31733   0.27726   1.000
    H84     H    0.37696   0.27775   0.04272   1.000
    H85     H    0.87689   0.27770   0.04270   1.000
    H86     H    0.33822   0.17326   0.96250   1.000
    H87     H    0.83820   0.17320   0.96248   1.000
    H88     H    0.46318   0.04496   0.07723   1.000
    H89     H    0.96317   0.04494   0.07725   1.000
    H90     H    0.00802   0.14452   0.16118   1.000
    H91     H    0.50803   0.14452   0.16117   1.000
    H92     H    0.42467   0.80197   0.07751   1.000
    H93     H    0.92472   0.80198   0.07750   1.000
    H94     H    0.39759   0.70632   0.16950   1.000
    H95     H    0.89763   0.70636   0.16956   1.000
    H96     H    0.22820   0.88948   0.15891   1.000
    H97     H    0.72825   0.88953   0.15888   1.000
    H98     H    0.35261   0.61799   0.23919   1.000
    H99     H    0.85259   0.61803   0.23913   1.000
    C100    C    0.94594   0.71986   0.39010   1.000
    C101    C    0.39733   0.72717   0.44730   1.000
    C102    C    0.89733   0.72717   0.44732   1.000
    C103    C    0.37547   0.66909   0.49256   1.000
    H104    H    0.30199   0.52926   0.33152   1.000
    H105    H    0.80205   0.52931   0.33149   1.000
    H106    H    0.14123   0.65252   0.40093   1.000
    H107    H    0.64126   0.65252   0.40094   1.000
    H108    H    0.18333   0.74635   0.30986   1.000
    H109    H    0.68329   0.74633   0.30985   1.000
    H110    H    0.07644   0.06918   0.73340   1.000
    H111    H    0.57649   0.06922   0.73350   1.000
    H112    H    0.12438   0.16259   0.64161   1.000
    H113    H    0.62443   0.16258   0.64166   1.000
    H114    H    0.38630   0.18271   0.77724   1.000
    H115    H    0.88633   0.18274   0.77731   1.000
    H116    H    0.12279   0.22221   0.54274   1.000
    H117    H    0.62284   0.22221   0.54273   1.000
    H118    H    0.16164   0.32670   0.46255   1.000
    H119    H    0.66158   0.32666   0.46249   1.000
    H120    H    0.03668   0.45504   0.57724   1.000
    H121    H    0.53664   0.45500   0.57721   1.000
    H122    H    0.49181   0.35547   0.66114   1.000
    H123    H    0.99181   0.35552   0.66118   1.000
    C124    C    0.33661   0.40864   0.44641   1.000
    C125    C    0.83658   0.40859   0.44641   1.000
    C126    C    0.32753   0.35255   0.39020   1.000
    C127    C    0.82752   0.35249   0.39019   1.000
    C128    C    0.37570   0.30020   0.38596   1.000
    C129    C    0.87568   0.30014   0.38595   1.000
    C130    C    0.35996   0.24689   0.33482   1.000
    C131    C    0.85999   0.24687   0.33476   1.000
    C132    C    0.37568   0.80016   0.11410   1.000
    C133    C    0.87573   0.80018   0.11420   1.000
    C134    C    0.36000   0.74688   0.16534   1.000
    C135    C    0.86003   0.74692   0.16537   1.000
    C136    C    0.29630   0.74690   0.21155   1.000
    C137    C    0.29623   0.24690   0.28861   1.000
    C138    C    0.79627   0.24690   0.28854   1.000
    C139    C    0.26711   0.34979   0.34047   1.000
    C140    C    0.76714   0.34976   0.34040   1.000
    C141    C    0.27226   0.19115   0.23391   1.000
    C142    C    0.77227   0.19113   0.23386   1.000
    C143    C    0.30532   0.12861   0.22684   1.000
    C144    C    0.80531   0.12857   0.22680   1.000
    C145    C    0.27734   0.07827   0.17519   1.000
    C146    C    0.77731   0.07822   0.17516   1.000
    C147    C    0.18784   0.14725   0.13630   1.000
    C148    C    0.68779   0.14720   0.13629   1.000
    C149    C    0.21213   0.19967   0.18654   1.000
    C150    C    0.71212   0.19964   0.18651   1.000
    C151    C    0.44834   0.56649   0.67946   1.000
    C152    C    0.94834   0.56647   0.67945   1.000
    C153    C    0.47790   0.61889   0.73754   1.000
    C154    C    0.97789   0.61886   0.73754   1.000
    C155    C    0.04492   0.61321   0.77735   1.000
    C156    C    0.54491   0.61323   0.77733   1.000
    C157    C    0.07082   0.66489   0.82848   1.000
    C158    C    0.57082   0.66489   0.82847   1.000
    C159    C    0.02893   0.72147   0.83878   1.000
    C160    C    0.52893   0.72148   0.83879   1.000
    C161    C    0.43946   0.67686   0.75201   1.000
    C162    C    0.93948   0.67686   0.75197   1.000
    C163    C    0.05396   0.78017   0.89018   1.000
    C164    C    0.55397   0.78017   0.89018   1.000
    C165    C    0.10257   0.77288   0.94734   1.000
    C166    C    0.60258   0.77288   0.94730   1.000
    C167    C    0.12444   0.83097   0.99257   1.000
    C168    C    0.62440   0.83096   0.99261   1.000
    C169    C    0.05440   0.90272   0.92946   1.000
    C170    C    0.55437   0.90271   0.92949   1.000
    C171    C    0.02942   0.84695   0.88239   1.000
    C172    C    0.52942   0.84695   0.88240   1.000
    C173    C    0.16329   0.09139   0.94633   1.000
    C174    C    0.66329   0.09138   0.94630   1.000
    C175    C    0.17236   0.14750   0.89010   1.000
    C176    C    0.67236   0.14749   0.89010   1.000
    C177    C    0.12417   0.19983   0.88586   1.000
    C178    C    0.62417   0.19983   0.88590   1.000
    C179    C    0.13987   0.25312   0.83471   1.000
    C180    C    0.63987   0.25312   0.83475   1.000
    C181    C    0.20360   0.25313   0.78853   1.000
    C182    C    0.70360   0.25313   0.78856   1.000
    C183    C    0.23278   0.15027   0.84041   1.000
    C184    C    0.73276   0.15026   0.84042   1.000
    C185    C    0.22758   0.30888   0.73386   1.000
    C186    C    0.72758   0.30888   0.73389   1.000
    C187    C    0.19457   0.37146   0.72679   1.000
    C188    C    0.69455   0.37145   0.72682   1.000
    C189    C    0.22259   0.42180   0.67510   1.000
    C190    C    0.72255   0.42179   0.67519   1.000
    C191    C    0.31206   0.35280   0.63632   1.000
    C192    C    0.81203   0.35279   0.63634   1.000
    C193    C    0.28771   0.30036   0.68652   1.000
    C194    C    0.78771   0.30036   0.68655   1.000
    C195    C    0.05162   0.93354   0.17951   1.000
    C196    C    0.55160   0.93355   0.17951   1.000
    C197    C    0.02208   0.88114   0.23759   1.000
    C198    C    0.52206   0.88116   0.23750   1.000
    C199    C    0.45506   0.88682   0.27737   1.000
    C200    C    0.95511   0.88685   0.27742   1.000
    C201    C    0.42914   0.83516   0.32848   1.000
    C202    C    0.92917   0.83517   0.32852   1.000
    C203    C    0.47102   0.77856   0.33880   1.000
    C204    C    0.97100   0.77853   0.33879   1.000
    C205    C    0.06043   0.82310   0.25200   1.000
    C206    C    0.56047   0.82317   0.25205   1.000
    C207    C    0.44596   0.71987   0.39010   1.000
    C208    C    0.87543   0.66910   0.49257   1.000
    C209    C    0.44551   0.59732   0.42946   1.000
    C210    C    0.94547   0.59732   0.42950   1.000
    C211    C    0.47050   0.65309   0.38241   1.000
    C212    C    0.97047   0.65306   0.38243   1.000
    C213    C    0.16321   0.59139   0.55369   1.000
    C214    C    0.66327   0.59141   0.55370   1.000
    C215    C    0.17231   0.64748   0.60991   1.000
    C216    C    0.67234   0.64751   0.60990   1.000
    C217    C    0.12412   0.69982   0.61420   1.000
    C218    C    0.62417   0.69986   0.61415   1.000
    C219    C    0.13988   0.75311   0.66536   1.000
    C220    C    0.63986   0.75313   0.66534   1.000
    C221    C    0.20365   0.75310   0.71150   1.000
    C222    C    0.70359   0.75312   0.71156   1.000
    C223    C    0.23275   0.65024   0.65962   1.000
    C224    C    0.73274   0.65026   0.65966   1.000
    C225    C    0.22764   0.80885   0.76623   1.000
    C226    C    0.72759   0.80888   0.76623   1.000
    C227    C    0.19461   0.87142   0.77327   1.000
    C228    C    0.69456   0.87145   0.77330   1.000
    C229    C    0.22260   0.92177   0.82490   1.000
    C230    C    0.72260   0.92180   0.82493   1.000
    C231    C    0.31208   0.85279   0.86381   1.000
    C232    C    0.81210   0.85281   0.86378   1.000
    C233    C    0.28777   0.80034   0.81359   1.000
    C234    C    0.78774   0.80036   0.81350   1.000
    C235    C    0.05160   0.43351   0.32065   1.000
    C236    C    0.55158   0.43354   0.32066   1.000
    C237    C    0.02201   0.38112   0.26250   1.000
    C238    C    0.52198   0.38114   0.26259   1.000
    C239    C    0.45495   0.38678   0.22282   1.000
    C240    C    0.95497   0.38678   0.22279   1.000
    C241    C    0.42903   0.33511   0.17169   1.000
    C242    C    0.92902   0.33512   0.17166   1.000
    C243    C    0.47094   0.27854   0.16135   1.000
    C244    C    0.97090   0.27853   0.16133   1.000
    C245    C    0.06040   0.32312   0.24811   1.000
    C246    C    0.56041   0.32316   0.24812   1.000
    C247    C    0.44591   0.21986   0.10993   1.000
    C248    C    0.94586   0.21984   0.10993   1.000
    C249    C    0.39730   0.22716   0.05278   1.000
    C250    C    0.89725   0.22712   0.05277   1.000
    C251    C    0.37546   0.16908   0.00000   1.000
    C252    C    0.87544   0.16904   0.00000   1.000
    C253    C    0.44550   0.09733   0.07062   1.000
    C254    C    0.94549   0.09730   0.07063   1.000
    C255    C    0.47047   0.15309   0.11770   1.000
    C256    C    0.97044   0.15307   0.11771   1.000
    C257    C    0.33656   0.90861   0.05374   1.000
    C258    C    0.83663   0.90862   0.05372   1.000
    C259    C    0.32751   0.85251   0.10994   1.000
    C260    C    0.82756   0.85254   0.10994   1.000
    C261    C    0.79629   0.74693   0.21155   1.000
    C262    C    0.26712   0.84976   0.15968   1.000
    C263    C    0.76716   0.84979   0.15966   1.000
    C264    C    0.27231   0.69115   0.26622   1.000
    C265    C    0.77229   0.69117   0.26621   1.000
    C266    C    0.30533   0.62858   0.27330   1.000
    C267    C    0.80533   0.62861   0.27326   1.000
    C268    C    0.27730   0.57823   0.32491   1.000
    C269    C    0.77734   0.57826   0.32489   1.000
    C270    C    0.18782   0.64724   0.36375   1.000
    C271    C    0.68785   0.64724   0.36375   1.000
    C272    C    0.21218   0.69968   0.31356   1.000
    C273    C    0.71216   0.69968   0.31355   1.000
    C274    C    0.44833   0.06644   0.82059   1.000
    C275    C    0.94832   0.06644   0.82059   1.000
    C276    C    0.47786   0.11886   0.76254   1.000
    C277    C    0.97783   0.11885   0.76253   1.000
    C278    C    0.04480   0.11316   0.72200   1.000
    C279    C    0.54485   0.11319   0.72275   1.000
    C280    C    0.07071   0.16484   0.67159   1.000
    C281    C    0.57075   0.16484   0.67163   1.000
    C282    C    0.02886   0.22146   0.66133   1.000
    C283    C    0.52887   0.22144   0.66132   1.000
    C284    C    0.43945   0.17685   0.74810   1.000
    C285    C    0.93945   0.17687   0.74813   1.000
    C286    C    0.05389   0.28014   0.60994   1.000
    C287    C    0.55390   0.28011   0.60992   1.000
    C288    C    0.10250   0.27282   0.55280   1.000
    C289    C    0.60251   0.27280   0.55278   1.000
    C290    C    0.12437   0.33089   0.50754   1.000
    C291    C    0.62434   0.33087   0.50750   1.000
    C292    C    0.05435   0.40267   0.57060   1.000
    C293    C    0.55432   0.40264   0.57060   1.000
    C294    C    0.02938   0.34693   0.61772   1.000
    C295    C    0.52936   0.34689   0.61768   1.000
    N296    N    0.25146   0.29892   0.29129   1.000
    N297    N    0.75149   0.29892   0.29124   1.000
    N298    N    0.21934   0.08683   0.13032   1.000
    N299    N    0.71930   0.08678   0.13031   1.000
    N300    N    0.46366   0.72705   0.80076   1.000
    N301    N    0.96364   0.72704   0.80074   1.000
    N302    N    0.10162   0.89529   0.98386   1.000
    N303    N    0.60156   0.89527   0.98390   1.000
    N304    N    0.24841   0.20113   0.79124   1.000
    N305    N    0.74839   0.20112   0.79126   1.000
    N306    N    0.28059   0.41324   0.63035   1.000
    N307    N    0.78055   0.41321   0.63036   1.000
    N308    N    0.03624   0.77292   0.30074   1.000
    N309    N    0.53629   0.77299   0.30080   1.000
    N310    N    0.39829   0.60477   0.48384   1.000
    N311    N    0.89824   0.60477   0.48386   1.000
    N312    N    0.24844   0.70109   0.70881   1.000
    N313    N    0.74838   0.70111   0.70885   1.000
    N314    N    0.28059   0.91321   0.86977   1.000
    N315    N    0.78062   0.91323   0.86976   1.000
    N316    N    0.03621   0.27296   0.19934   1.000
    N317    N    0.53622   0.27298   0.19936   1.000
    N318    N    0.39829   0.10476   0.01622   1.000
    N319    N    0.89829   0.10473   0.01622   1.000
    N320    N    0.25151   0.79891   0.20880   1.000
    N321    N    0.75151   0.79895   0.20883   1.000
    N322    N    0.21929   0.58680   0.36973   1.000
    N323    N    0.71934   0.58682   0.36973   1.000
    N324    N    0.46365   0.22704   0.69937   1.000
    N325    N    0.96363   0.22707   0.69940   1.000
    N326    N    0.10154   0.39522   0.51625   1.000
    N327    N    0.60151   0.39519   0.51621   1.000
    O328    O    0.28503   0.45007   0.44967   1.000
    O329    O    0.78499   0.45002   0.44965   1.000
    O330    O    0.39338   0.41261   0.48967   1.000
    O331    O    0.89335   0.41257   0.48960   1.000
    O332    O    0.38688   0.58097   0.64689   1.000
    O333    O    0.88688   0.58095   0.64688   1.000
    O334    O    0.48325   0.51541   0.66619   1.000
    O335    O    0.98325   0.51540   0.66617   1.000
    O336    O    0.21483   0.04992   0.94956   1.000
    O337    O    0.71485   0.04994   0.94900   1.000
    O338    O    0.10655   0.08745   0.98960   1.000
    O339    O    0.60654   0.08743   0.98961   1.000
    O340    O    0.11306   0.91908   0.14692   1.000
    O341    O    0.61302   0.91907   0.14691   1.000
    O342    O    0.01671   0.98463   0.16620   1.000
    O343    O    0.51670   0.98465   0.16628   1.000
    O344    O    0.21473   0.54991   0.55047   1.000
    O345    O    0.71483   0.54996   0.55046   1.000
    O346    O    0.10646   0.58745   0.51041   1.000
    O347    O    0.60654   0.58746   0.51041   1.000
    O348    O    0.11309   0.41905   0.35318   1.000
    O349    O    0.61306   0.41907   0.35320   1.000
    O350    O    0.01671   0.48460   0.33395   1.000
    O351    O    0.51670   0.48464   0.33394   1.000
    O352    O    0.28495   0.95001   0.05045   1.000
    O353    O    0.78503   0.95004   0.05044   1.000
    O354    O    0.39334   0.91259   0.01049   1.000
    O355    O    0.89339   0.91258   0.01048   1.000
    O356    O    0.38693   0.08093   0.85320   1.000
    O357    O    0.88691   0.08091   0.85320   1.000
    O358    O    0.48324   0.01534   0.83380   1.000
    O359    O    0.98323   0.01533   0.83378   1.000
loop_
    _geom_bond_atom_site_label_1
    _geom_bond_atom_site_label_2
    _geom_bond_distance
    _geom_bond_site_symmetry_2
    _ccdc_geom_bond_type
    C252   N319      1.37401      .   S
    C252   C250      1.48489      .   S
    C252   H87       0.97705  1_554   S
    C251   N318      1.37406      .   S
    C251   C249      1.48500      .   S
    C251   H86       0.97695  1_554   S
    O355   C258      1.26902      .   S
    O355   Cd4       2.45096  1_564   S
    O354   C257      1.26923      .   S
    O354   Cd3       2.45093  1_564   S
    N318   C253      1.34844      .   S
    N318   Cd3       2.34465  1_554   S
    N319   C254      1.34844      .   S
    N319   Cd4       2.34422  1_554   S
    H29    C167      1.08955  1_554   S
    H30    C168      1.08951  1_554   S
    H85    C250      1.08933      .   S
    H84    C249      1.08933      .   S
    O353   C258      1.28356      .   S
    O353   Cd4       2.48116  1_564   S
    O352   C257      1.28358      .   S
    O352   Cd3       2.48186  1_564   S
    C250   C248      1.40439      .   S
    C249   C247      1.40429      .   S
    C258   C260      1.49970      .   S
    C257   C259      1.49962      .   S
    Cd0    N299      2.36106  1_565   S
    Cd0    O341      2.23940      .   S
    Cd0    O337      2.49180  1_564   S
    Cd0    N303      2.34415  1_554   S
    Cd0    O339      2.45074  1_564   S
    Cd32   N298      2.36153  1_565   S
    Cd32   O340      2.23944      .   S
    Cd32   O336      2.48232  1_564   S
    Cd32   N302      2.34451  1_554   S
    Cd32   O338      2.45126  1_564   S
    C253   H88       1.08939      .   S
    C253   C255      1.38773      .   S
    C254   H89       1.08939      .   S
    C254   C256      1.38780      .   S
    H93    C133      1.09057      .   S
    H92    C132      1.08916      .   S
    H17    C147      1.08977      .   S
    H18    C148      1.08972      .   S
    C247   C255      1.40378      .   S
    C247   C243      1.48140      .   S
    C248   C256      1.40377      .   S
    C248   C244      1.48124      .   S
    C259   C132      1.40009      .   S
    C259   C262      1.40158      .   S
    C260   C133      1.40014      .   S
    C260   C263      1.40151      .   S
    C132   C134      1.39514      .   S
    C133   C135      1.39406      .   S
    C255   H91       1.08777      .   S
    C256   H90       1.08792  1_655   S
    N299   C148      1.35037      .   S
    N299   C146      1.34766      .   S
    N298   C147      1.35041      .   S
    N298   C145      1.34771      .   S
    C148   C150      1.38561      .   S
    C147   C149      1.38558      .   S
    H81    C242      1.08966      .   S
    H80    C241      1.08977      .   S
    O341   C196      1.29479      .   S
    O340   C195      1.29481      .   S
    H97    C263      1.09039      .   S
    H96    C262      1.09037      .   S
    C263   N321      1.33576      .   S
    C262   N320      1.33501      .   S
    C244   C242      1.40450      .   S
    C244   N316      1.35357  1_655   S
    C243   C241      1.40450      .   S
    C243   N317      1.35317      .   S
    C134   H94       1.08934      .   S
    C134   C136      1.40537      .   S
    C135   H95       1.08934      .   S
    C135   C261      1.40539      .   S
    O342   C195      1.24970      .   S
    O343   C196      1.24944      .   S
    H16    C146      1.08996      .   S
    H15    C145      1.08996      .   S
    C242   C240      1.39334      .   S
    C241   C239      1.39327      .   S
    C146   C144      1.39188      .   S
    C145   C143      1.39181      .   S
    C195   C197      1.51167      .   S
    C196   C198      1.51032      .   S
    C150   H20       1.08695      .   S
    C150   C142      1.40614      .   S
    C149   H19       1.08697      .   S
    C149   C141      1.40609      .   S
    N316   C245      1.33798      .   S
    N317   C246      1.33800      .   S
    N320   C136      1.35227      .   S
    N321   C261      1.35225      .   S
    C136   C264      1.48624      .   S
    C261   C265      1.48624      .   S
    C240   H79       1.09006      .   S
    C240   C237      1.39652  1_655   S
    C239   H78       1.09003      .   S
    C239   C238      1.39691      .   S
    H54    C205      1.08977      .   S
    H55    C206      1.08974      .   S
    C144   C142      1.40390      .   S
    C144   H14       1.08902      .   S
    C143   C141      1.40389      .   S
    C143   H13       1.08901      .   S
    C142   C138      1.48627      .   S
    C141   C137      1.48630      .   S
    C198   C206      1.40338      .   S
    C198   C199      1.39794      .   S
    C197   C205      1.40305      .   S
    C197   C200      1.39731  1_455   S
    H99    C267      1.08900      .   S
    H98    C266      1.08905      .   S
    C245   C237      1.40276      .   S
    C245   H82       1.08979      .   S
    C246   C238      1.40302      .   S
    C246   H83       1.08975      .   S
    C205   N308      1.33798      .   S
    C206   N309      1.33810      .   S
    C237   C235      1.51250      .   S
    C238   C236      1.51149      .   S
    C265   C267      1.40388      .   S
    C265   C273      1.40608      .   S
    C264   C266      1.40389      .   S
    C264   C272      1.40616      .   S
    H50    C199      1.09005      .   S
    H51    C200      1.09015      .   S
    C267   C269      1.39194      .   S
    C266   C268      1.39183      .   S
    C199   C201      1.39319      .   S
    C200   C202      1.39331      .   S
    C138   N297      1.35225      .   S
    C138   C131      1.40540      .   S
    C137   N296      1.35221      .   S
    C137   C130      1.40544      .   S
    N297   C140      1.33543      .   S
    N296   C139      1.33591      .   S
    N308   C204      1.35352  1_455   S
    N309   C203      1.35319      .   S
    H109   C273      1.08698      .   S
    H108   C272      1.08696      .   S
    C273   C271      1.38553      .   S
    C272   C270      1.38552      .   S
    C235   O350      1.24945      .   S
    C235   O348      1.29479      .   S
    C236   O351      1.24942      .   S
    C236   O349      1.29482      .   S
    C269   H105      1.08995      .   S
    C269   N323      1.34763      .   S
    C268   H104      1.08997      .   S
    C268   N322      1.34761      .   S
    C201   C203      1.40450      .   S
    C201   H52       1.08971      .   S
    C202   C204      1.40449      .   S
    C202   H53       1.08971      .   S
    H10    C131      1.08934      .   S
    H9     C130      1.08932      .   S
    C131   C129      1.39407      .   S
    C130   C128      1.39398      .   S
    C204   C100      1.48025      .   S
    C203   C207      1.48026      .   S
    H63    C211      1.08779      .   S
    H62    C212      1.08787  1_455   S
    C140   H12       1.09037      .   S
    C140   C127      1.40187      .   S
    C139   H11       1.09036      .   S
    C139   C126      1.40148      .   S
    O348   Cd5       2.23878      .   S
    O349   Cd6       2.23855      .   S
    C270   N322      1.35040      .   S
    C270   H106      1.08985      .   S
    C271   N323      1.35040      .   S
    C271   H107      1.08984      .   S
    N323   Cd6       2.36265      .   S
    N322   Cd5       2.36241      .   S
    C211   C207      1.40362      .   S
    C211   C209      1.38772      .   S
    C212   C100      1.40362      .   S
    C212   C210      1.38776      .   S
    C129   C127      1.40014      .   S
    C129   H8        1.09017      .   S
    C128   C126      1.40011      .   S
    C128   H7        1.09013      .   S
    C207   C101      1.40546      .   S
    C100   C102      1.40576      .   S
    C127   C125      1.49969      .   S
    C126   C124      1.49949      .   S
    H60    C209      1.08940      .   S
    H61    C210      1.08938      .   S
    C209   N310      1.34844      .   S
    C210   N311      1.34837      .   S
    Cd5    O346      2.45146      .   S
    Cd5    N326      2.34581      .   S
    Cd5    O344      2.48027      .   S
    Cd6    O347      2.45103      .   S
    Cd6    N327      2.34607      .   S
    Cd6    O345      2.48085      .   S
    C125   O329      1.28357      .   S
    C125   O331      1.26808      .   S
    C124   O328      1.28355      .   S
    C124   O330      1.26910      .   S
    C101   H56       1.08937      .   S
    C101   C103      1.38911      .   S
    C102   H57       1.08934      .   S
    C102   C208      1.38901      .   S
    O329   Cd2       2.48096      .   S
    O328   Cd1       2.48043      .   S
    H119   C291      1.08956      .   S
    H118   C290      1.08960      .   S
    N310   C103      1.34833      .   S
    N310   Cd1       2.34531      .   S
    N311   C208      1.34834      .   S
    N311   Cd2       2.34537      .   S
    O331   Cd2       2.45191      .   S
    O330   Cd1       2.45100      .   S
    C103   H58       1.08957      .   S
    C208   H59       1.08956      .   S
    C291   N327      1.34836      .   S
    C291   C289      1.38910      .   S
    C290   N326      1.34834      .   S
    C290   C288      1.38903      .   S
    O346   C213      1.26900      .   S
    O347   C214      1.26897      .   S
    N327   C293      1.34839      .   S
    N326   C292      1.34787      .   S
    H117   C289      1.08934      .   S
    H116   C288      1.08933      .   S
    O345   C214      1.28352      .   S
    O344   C213      1.28356      .   S
    C289   C287      1.40435      .   S
    C288   C286      1.40436      .   S
    C213   C215      1.49959      .   S
    C214   C216      1.49948      .   S
    Cd2    N307      2.36203      .   S
    Cd2    O333      2.23869      .   S
    Cd1    N306      2.36188      .   S
    Cd1    O332      2.23865      .   S
    C292   H120      1.08946      .   S
    C292   C294      1.38827      .   S
    C293   H121      1.08940      .   S
    C293   C295      1.38776      .   S
    H65    C218      1.09002      .   S
    H64    C217      1.09066      .   S
    H46    C191      1.08974      .   S
    H47    C192      1.08975      .   S
    C216   C218      1.40017      .   S
    C216   C224      1.40174      .   S
    C215   C217      1.40013      .   S
    C215   C223      1.40161      .   S
    C287   C295      1.40376      .   S
    C287   C283      1.48133      .   S
    C286   C294      1.40377      .   S
    C286   C282      1.48124      .   S
    C218   C220      1.39413      .   S
    C217   C219      1.39401      .   S
    C295   H122      1.08775      .   S
    C294   H123      1.08795  1_455   S
    N306   C191      1.35036      .   S
    N306   C189      1.34668      .   S
    N307   C192      1.35037      .   S
    N307   C190      1.34759      .   S
    C191   C193      1.38566      .   S
    C192   C194      1.38557      .   S
    H112   C280      1.08968      .   S
    H113   C281      1.08977      .   S
    O333   C152      1.29482      .   S
    O332   C151      1.29482      .   S
    H68    C223      1.09037      .   S
    H69    C224      1.09038      .   S
    C223   N312      1.33590      .   S
    C224   N313      1.33589      .   S
    C283   C281      1.40451      .   S
    C283   N324      1.35322      .   S
    C282   C280      1.40449      .   S
    C282   N325      1.35356  1_455   S
    C220   H67       1.08933      .   S
    C220   C222      1.40544      .   S
    C219   H66       1.08932      .   S
    C219   C221      1.40500      .   S
    O335   C152      1.24940      .   S
    O334   C151      1.24941      .   S
    H44    C189      1.08979      .   S
    H45    C190      1.08998      .   S
    C280   C278      1.38376      .   S
    C281   C279      1.39318      .   S
    C189   C187      1.39285      .   S
    C190   C188      1.39186      .   S
    C152   C154      1.51150      .   S
    C151   C153      1.51140      .   S
    C193   H48       1.08697      .   S
    C193   C185      1.40607      .   S
    C194   H49       1.08688      .   S
    C194   C186      1.40611      .   S
    N324   C284      1.33802      .   S
    N325   C285      1.33805      .   S
    N312   C221      1.35218      .   S
    N313   C222      1.35222      .   S
    C221   C225      1.48680      .   S
    C222   C226      1.48617      .   S
    C278   H110      1.09267      .   S
    C278   C277      1.40478  1_455   S
    C279   H111      1.09007      .   S
    C279   C276      1.39697      .   S
    H26    C162      1.08967      .   S
    H25    C161      1.08972      .   S
    C187   C185      1.40394      .   S
    C187   H42       1.08908      .   S
    C188   C186      1.40391      .   S
    C188   H43       1.08909      .   S
    C185   C181      1.48626      .   S
    C186   C182      1.48628      .   S
    C153   C161      1.40303      .   S
    C153   C156      1.39693      .   S
    C154   C162      1.40301      .   S
    C154   C155      1.39729  1_655   S
    H70    C227      1.08903      .   S
    H71    C228      1.08899      .   S
    C284   C276      1.40302      .   S
    C284   H114      1.08969      .   S
    C285   C277      1.40301      .   S
    C285   H115      1.08966      .   S
    C162   N301      1.33801      .   S
    C161   N300      1.33807      .   S
    C277   C275      1.51144      .   S
    C276   C274      1.51140      .   S
    C225   C227      1.40388      .   S
    C225   C233      1.40602      .   S
    C226   C228      1.40390      .   S
    C226   C234      1.40519      .   S
    H22    C156      1.09006      .   S
    H21    C155      1.09006      .   S
    C227   C229      1.39173      .   S
    C228   C230      1.39188      .   S
    C156   C158      1.39330      .   S
    C155   C157      1.39334      .   S
    C181   N304      1.35224      .   S
    C181   C179      1.40535      .   S
    C182   N305      1.35224      .   S
    C182   C180      1.40538      .   S
    N304   C183      1.33584      .   S
    N305   C184      1.33577      .   S
    N301   C159      1.35354  1_655   S
    N300   C160      1.35325      .   S
    H77    C234      1.08686      .   S
    H76    C233      1.08696      .   S
    C234   C232      1.38659      .   S
    C233   C231      1.38563      .   S
    C274   O358      1.24941      .   S
    C274   O356      1.29460      .   S
    C275   O359      1.24940      .   S
    C275   O357      1.29475      .   S
    C229   H72       1.08996      .   S
    C229   N314      1.34768      .   S
    C230   H73       1.08996      .   S
    C230   N315      1.34759      .   S
    C158   C160      1.40451      .   S
    C158   H24       1.08968      .   S
    C157   C159      1.40451      .   S
    C157   H23       1.08964      .   S
    H38    C179      1.08934      .   S
    H39    C180      1.08934      .   S
    C179   C177      1.39407      .   S
    C180   C178      1.39414      .   S
    C159   C163      1.48133      .   S
    C160   C164      1.48119      .   S
    H35    C171      1.08793  1_655   S
    H34    C172      1.08764      .   S
    C183   H40       1.09039      .   S
    C183   C175      1.40127      .   S
    C184   H41       1.09041      .   S
    C184   C176      1.40102      .   S
    O357   Cd4       2.23920      .   S
    O356   Cd3       2.23945      .   S
    C232   N315      1.35036      .   S
    C232   H75       1.08989      .   S
    C231   N314      1.35037      .   S
    C231   H74       1.08988      .   S
    N315   Cd4       2.36098  1_565   S
    N314   Cd3       2.36122  1_565   S
    C171   C163      1.40379      .   S
    C171   C169      1.38774      .   S
    C172   C164      1.40378      .   S
    C172   C170      1.38777      .   S
    C177   C175      1.40012      .   S
    C177   H36       1.09017      .   S
    C178   C176      1.40009      .   S
    C178   H37       1.09004      .   S
    C176   C174      1.49964      .   S
    C175   C173      1.50009      .   S
    C164   C166      1.40375      .   S
    C163   C165      1.40437      .   S
    H31    C169      1.08949      .   S
    H33    C170      1.08940      .   S
    C169   N302      1.34848      .   S
    C170   N303      1.34839      .   S
    C174   O337      1.28300      .   S
    C174   O339      1.26977      .   S
    C173   O336      1.28348      .   S
    C173   O338      1.26912      .   S
    C166   H28       1.08948      .   S
    C166   C168      1.38935      .   S
    C165   H27       1.08933      .   S
    C165   C167      1.38871      .   S
    N302   C167      1.34824      .   S
    N303   C168      1.34823      .   S
    O328   Cd5       2.54299      .   S
    O329   Cd6       2.54265      .   S
    O336   Cd3       2.54300      .   S
    O337   Cd4       2.54288      .   S
    O344   Cd1       2.54405      .   S
    O345   Cd2       2.54263      .   S
    O352   Cd32      2.54233      .   S
    O353   Cd0       2.54392      .   S
