# CIF file generated by openbabel 2.4.90, see http://openbabel.sf.net
data_I
_chemical_name_common ''
_cell_length_a 17.005
_cell_length_b 18.735
_cell_length_c 19.368
_cell_angle_alpha 90.005
_cell_angle_beta 90.013
_cell_angle_gamma 101.51
_space_group_name_H-M_alt 'P 1'
_space_group_name_Hall 'P 1'
loop_
    _symmetry_equiv_pos_as_xyz
    x,y,z
loop_
    _atom_site_label
    _atom_site_type_symbol
    _atom_site_fract_x
    _atom_site_fract_y
    _atom_site_fract_z
    _atom_site_occupancy
    Zr0     Zr   0.15255   0.99309   0.05731   1.000
    Zr1     Zr   0.65251   0.99308   0.05730   1.000
    Zr2     Zr   0.34732   0.50697   0.55731   1.000
    Zr3     Zr   0.84729   0.50694   0.55731   1.000
    Zr4     Zr   0.34732   0.00694   0.94280   1.000
    Zr5     Zr   0.84736   0.00692   0.94280   1.000
    Zr6     Zr   0.15253   0.49305   0.44279   1.000
    Zr7     Zr   0.65256   0.49307   0.44279   1.000
    N8      N    0.70910   0.25720   0.78719   1.000
    O9      O    0.74511   0.14282   0.86655   1.000
    O10     O    0.76151   0.35864   0.69051   1.000
    N11     N    0.79076   0.24280   0.28722   1.000
    O12     O    0.75477   0.35717   0.36672   1.000
    O13     O    0.73833   0.14136   0.19051   1.000
    N14     N    0.20911   0.25721   0.78720   1.000
    O15     O    0.26154   0.35866   0.69051   1.000
    O16     O    0.24510   0.14282   0.86669   1.000
    N17     N    0.46761   0.77329   0.33900   1.000
    O18     O    0.55019   0.86468   0.22055   1.000
    O19     O    0.42021   0.66458   0.42979   1.000
    N20     N    0.20911   0.75719   0.71286   1.000
    O21     O    0.26154   0.85863   0.80957   1.000
    O22     O    0.24507   0.64281   0.63338   1.000
    N23     N    0.46756   0.27328   0.16078   1.000
    O24     O    0.42019   0.16456   0.07015   1.000
    O25     O    0.55019   0.36467   0.27939   1.000
    N26     N    0.70912   0.75721   0.71286   1.000
    O27     O    0.76155   0.85865   0.80957   1.000
    O28     O    0.74509   0.64283   0.63337   1.000
    N29     N    0.29076   0.74281   0.21286   1.000
    O30     O    0.25476   0.85718   0.13337   1.000
    O31     O    0.23834   0.64137   0.30956   1.000
    N32     N    0.53232   0.72675   0.83900   1.000
    O33     O    0.57968   0.83546   0.92980   1.000
    O34     O    0.44971   0.63536   0.72055   1.000
    N35     N    0.96755   0.27326   0.16077   1.000
    O36     O    0.92019   0.16454   0.07014   1.000
    O37     O    0.05018   0.36466   0.27938   1.000
    N38     N    0.53227   0.22669   0.66109   1.000
    O39     O    0.57965   0.33541   0.57029   1.000
    O40     O    0.44970   0.13531   0.77954   1.000
    N41     N    0.96760   0.77328   0.33902   1.000
    O42     O    0.92018   0.66457   0.42980   1.000
    O43     O    0.05020   0.86468   0.22056   1.000
    N44     N    0.03233   0.72675   0.83899   1.000
    O45     O    0.07970   0.83547   0.92979   1.000
    O46     O    0.94970   0.63535   0.72054   1.000
    N47     N    0.79079   0.74283   0.21286   1.000
    O48     O    0.75478   0.85720   0.13337   1.000
    O49     O    0.73837   0.64139   0.30956   1.000
    N50     N    0.03226   0.22671   0.66107   1.000
    O51     O    0.94970   0.13531   0.77953   1.000
    O52     O    0.07965   0.33542   0.57029   1.000
    N53     N    0.29077   0.24284   0.28726   1.000
    O54     O    0.23836   0.14140   0.19054   1.000
    O55     O    0.25477   0.35720   0.36674   1.000
    O56     O    0.31700   0.85596   0.09975   1.000
    O57     O    0.68285   0.14404   0.90025   1.000
    O58     O    0.81699   0.35596   0.40034   1.000
    O59     O    0.31702   0.35600   0.40037   1.000
    O60     O    0.81704   0.85598   0.09975   1.000
    O61     O    0.18284   0.64403   0.59974   1.000
    O62     O    0.18287   0.14405   0.90032   1.000
    O63     O    0.68287   0.64405   0.59974   1.000
loop_
    _geom_bond_atom_site_label_1
    _geom_bond_atom_site_label_2
    _geom_bond_distance
    _geom_bond_site_symmetry_2
    _ccdc_geom_bond_type
    N8     O9        2.80233      .   S
    Zr5    O9        3.66782      .   S
    N8     O10       2.69028      .   S
    Zr3    O10       3.85862      .   S
    N11    O12       2.80357      .   S
    Zr7    O12       3.66611      .   S
    N11    O13       2.69016      .   S
    Zr1    O13       3.85794  1_565   S
    N14    O15       2.69049      .   S
    Zr2    O15       3.85877      .   S
    N14    O16       2.80373      .   S
    Zr4    O16       3.66631      .   S
    N17    O18       3.03466      .   S
    Zr1    O18       4.14066      .   S
    N17    O19       2.68996      .   S
    Zr2    O19       3.85975      .   S
    N20    O21       2.69029      .   S
    Zr4    O21       3.85820  1_545   S
    N20    O22       2.80327      .   S
    Zr2    O22       3.66576      .   S
    N23    O24       2.68755      .   S
    Zr4    O24       3.85703  1_556   S
    N23    O25       3.03658      .   S
    Zr7    O25       4.14215      .   S
    N26    O27       2.69020      .   S
    Zr5    O27       3.85800  1_545   S
    N26    O28       2.80346      .   S
    Zr3    O28       3.66587      .   S
    N29    O30       2.80358      .   S
    Zr0    O30       3.66604      .   S
    N29    O31       2.69067      .   S
    Zr6    O31       3.85919      .   S
    N32    O33       2.68952      .   S
    Zr1    O33       3.85870  1_554   S
    N32    O34       3.03416      .   S
    Zr2    O34       4.13983      .   S
    N35    O36       2.68743      .   S
    Zr5    O36       3.85671  1_556   S
    N35    O37       3.03666  1_655   S
    Zr6    O37       4.14228      .   S
    N38    O39       2.69006      .   S
    Zr7    O39       3.86018      .   S
    N38    O40       3.03463      .   S
    Zr4    O40       4.14078      .   S
    N41    O42       2.69001      .   S
    Zr3    O42       3.85984      .   S
    N41    O43       3.03489  1_655   S
    Zr0    O43       4.14088      .   S
    N44    O45       2.68969      .   S
    Zr0    O45       3.85909  1_554   S
    N44    O46       3.03426  1_455   S
    Zr3    O46       4.13997      .   S
    N47    O48       2.80354      .   S
    Zr1    O48       3.66633      .   S
    N47    O49       2.69070      .   S
    Zr7    O49       3.85932      .   S
    N50    O51       3.03489  1_455   S
    Zr5    O51       4.14087      .   S
    N50    O52       2.68976      .   S
    Zr6    O52       3.85979      .   S
    N53    O54       2.69033      .   S
    Zr0    O54       3.85831  1_565   S
    N53    O55       2.80333      .   S
    Zr6    O55       3.66564      .   S
    Zr4    O56       4.11416  1_546   S
    N29    O56       3.01934      .   S
    Zr1    O57       4.11555  1_564   S
    N8     O57       3.01860      .   S
    Zr3    O58       4.11404      .   S
    N11    O58       3.01915      .   S
    Zr2    O59       4.11350      .   S
    N53    O59       3.01907      .   S
    Zr5    O60       4.11385  1_546   S
    N47    O60       3.01922      .   S
    Zr6    O61       4.11367      .   S
    N20    O61       3.01918      .   S
    Zr0    O62       4.11460  1_564   S
    N14    O62       3.01958      .   S
    Zr7    O63       4.11378      .   S
    N26    O63       3.01920      .   S
