# CIF file generated by openbabel 2.4.90, see http://openbabel.sf.net
data_I
_chemical_name_common ''
_cell_length_a 15.556
_cell_length_b 21.857
_cell_length_c 21.842
_cell_angle_alpha 119.901
_cell_angle_beta 89.952
_cell_angle_gamma 90.044
_space_group_name_H-M_alt 'P 1'
_space_group_name_Hall 'P 1'
loop_
    _symmetry_equiv_pos_as_xyz
    x,y,z
loop_
    _atom_site_label
    _atom_site_type_symbol
    _atom_site_fract_x
    _atom_site_fract_y
    _atom_site_fract_z
    _atom_site_occupancy
    N0      N    0.86380   0.24231   0.46942   1.000
    N1      N    0.63623   0.75767   0.53054   1.000
    N2      N    0.13623   0.75768   0.53056   1.000
    N3      N    0.86372   0.22690   0.75765   1.000
    N4      N    0.36372   0.22690   0.75764   1.000
    N5      N    0.63630   0.77293   0.24234   1.000
    N6      N    0.13630   0.77293   0.24233   1.000
    N7      N    0.36379   0.24230   0.46939   1.000
    N8      N    0.36378   0.53051   0.77280   1.000
    N9      N    0.86378   0.53051   0.77281   1.000
    N10     N    0.63624   0.46948   0.22701   1.000
    N11     N    0.13625   0.46947   0.22699   1.000
    Zr12    Zr   0.50001   0.49999   0.99999   1.000
    O13     O    0.39805   0.57822   0.07005   1.000
    O14     O    0.60198   0.42172   0.92993   1.000
    Zr15    Zr   0.00000   0.50000   0.49999   1.000
    O16     O    0.89804   0.49185   0.42177   1.000
    O17     O    0.10197   0.50814   0.57817   1.000
    Zr18    Zr   0.00001   0.50000   0.00000   1.000
    O19     O    0.89804   0.57823   0.07006   1.000
    O20     O    0.10197   0.42173   0.92991   1.000
    Zr21    Zr   0.50000   0.00001   0.50000   1.000
    O22     O    0.39805   0.92999   0.50819   1.000
    O23     O    0.60197   0.07001   0.49180   1.000
    Zr24    Zr   0.50001   0.49999   0.50000   1.000
    O25     O    0.39805   0.49184   0.42177   1.000
    O26     O    0.60198   0.50813   0.57818   1.000
    Zr27    Zr   0.00000   1.00000   0.50000   1.000
    O28     O    0.89804   0.92998   0.50819   1.000
    O29     O    0.10197   0.07001   0.49179   1.000
    O30     O    0.46727   0.06187   0.57422   1.000
    O31     O    0.53275   0.93810   0.42577   1.000
    O32     O    0.96729   0.42578   0.48767   1.000
    O33     O    0.03273   0.57421   0.51231   1.000
    O34     O    0.53273   0.57421   0.51232   1.000
    O35     O    0.46729   0.42577   0.48767   1.000
    O36     O    0.03275   0.93809   0.42577   1.000
    O37     O    0.96726   0.06186   0.57423   1.000
    O38     O    0.03273   0.48769   0.06183   1.000
    O39     O    0.53273   0.48768   0.06188   1.000
    O40     O    0.46729   0.51230   0.93806   1.000
    O41     O    0.96729   0.51230   0.93807   1.000
loop_
    _geom_bond_atom_site_label_1
    _geom_bond_atom_site_label_2
    _geom_bond_distance
    _geom_bond_site_symmetry_2
    _ccdc_geom_bond_type
    Zr12   O13       2.27436  1_556   S
    N6     O13       5.73453      .   S
    Zr12   O14       2.27471      .   S
    N3     O14       5.73562      .   S
    Zr15   O16       2.27321  1_455   S
    N10    O16       5.73338      .   S
    Zr15   O17       2.27255      .   S
    N8     O17       5.73169      .   S
    Zr18   O19       2.27433  1_455   S
    N5     O19       5.73450      .   S
    Zr18   O20       2.27491  1_554   S
    N4     O20       5.73557      .   S
    Zr21   O22       2.27116  1_545   S
    N2     O22       5.72871      .   S
    Zr21   O23       2.27120      .   S
    N0     O23       5.72874      .   S
    Zr24   O25       2.27338      .   S
    N11    O25       5.73378      .   S
    Zr24   O26       2.27257      .   S
    N9     O26       5.73147      .   S
    Zr27   O28       2.27114  1_455   S
    N1     O28       5.72860      .   S
    Zr27   O29       2.27126  1_565   S
    N7     O29       5.72895      .   S
    Zr21   O30       1.59059      .   S
    N4     O30       4.15280      .   S
    Zr21   O31       1.59107  1_545   S
    N5     O31       4.15418      .   S
    Zr15   O32       1.58952  1_455   S
    N0     O32       4.15075      .   S
    Zr15   O33       1.58959      .   S
    N2     O33       4.15093      .   S
    Zr24   O34       1.58959      .   S
    N1     O34       4.15096      .   S
    Zr24   O35       1.58947      .   S
    N7     O35       4.15058      .   S
    N6     O36       4.15422      .   S
    Zr27   O36       1.59109      .   S
    Zr27   O37       1.59062  1_465   S
    N3     O37       4.15287      .   S
    N11    O38       4.14830      .   S
    Zr18   O38       1.58706      .   S
    Zr12   O39       1.58820  1_556   S
    N10    O39       4.14768      .   S
    Zr12   O40       1.58907      .   S
    N8     O40       4.15019      .   S
    Zr18   O41       1.58906  1_454   S
    N9     O41       4.15022      .   S
