# CIF file generated by openbabel 2.4.90, see http://openbabel.sf.net
data_I
_chemical_name_common ''
_cell_length_a 15.556
_cell_length_b 21.857
_cell_length_c 21.842
_cell_angle_alpha 119.901
_cell_angle_beta 89.952
_cell_angle_gamma 90.044
_space_group_name_H-M_alt 'P 1'
_space_group_name_Hall 'P 1'
loop_
    _symmetry_equiv_pos_as_xyz
    x,y,z
loop_
    _atom_site_label
    _atom_site_type_symbol
    _atom_site_fract_x
    _atom_site_fract_y
    _atom_site_fract_z
    _atom_site_occupancy
    C0      C    0.00000   0.50000   0.49999   1.000
    C1      C    0.50001   0.49999   0.50000   1.000
    C2      C    0.00000   1.00000   0.50000   1.000
    C3      C    0.50000   0.00001   0.50000   1.000
    C4      C    0.00001   0.50000   0.00000   1.000
    C5      C    0.50001   0.49999   0.99999   1.000
    C6      C    0.23609   0.35143   0.41702   1.000
    C7      C    0.73610   0.35142   0.41703   1.000
    C8      C    0.19177   0.32993   0.33409   1.000
    C9      C    0.69178   0.32992   0.33410   1.000
    C10     C    0.18035   0.27029   0.36753   1.000
    C11     C    0.68035   0.27029   0.36753   1.000
    C12     C    0.06153   0.27736   0.42970   1.000
    C13     C    0.56152   0.27735   0.42971   1.000
    C14     C    0.46682   0.20800   0.40994   1.000
    C15     C    0.96683   0.20800   0.40994   1.000
    C16     C    0.36173   0.13112   0.42135   1.000
    C17     C    0.86173   0.13113   0.42135   1.000
    C18     C    0.21954   0.31398   0.57330   1.000
    C19     C    0.71955   0.31399   0.57330   1.000
    C20     C    0.32682   0.39098   0.56140   1.000
    C21     C    0.82683   0.39099   0.56146   1.000
    C22     C    0.30151   0.07966   0.47127   1.000
    C23     C    0.80152   0.07966   0.47127   1.000
    C24     C    0.18435   0.00127   0.46760   1.000
    C25     C    0.68436   0.00128   0.46759   1.000
    C26     C    0.00051   0.15655   0.52409   1.000
    C27     C    0.50052   0.15656   0.52409   1.000
    C28     C    0.10784   0.24186   0.52583   1.000
    C29     C    0.60786   0.24187   0.52584   1.000
    C30     C    0.23589   0.06596   0.64893   1.000
    C31     C    0.73590   0.06598   0.64890   1.000
    C32     C    0.19154   0.00000   0.67070   1.000
    C33     C    0.69155   0.00000   0.67060   1.000
    C34     C    0.18011   0.09758   0.73014   1.000
    C35     C    0.68013   0.09759   0.73013   1.000
    C36     C    0.06119   0.15230   0.72288   1.000
    C37     C    0.56119   0.15230   0.72288   1.000
    C38     C    0.46664   0.20197   0.79215   1.000
    C39     C    0.96664   0.20196   0.79214   1.000
    C40     C    0.36169   0.29013   0.86880   1.000
    C41     C    0.86169   0.29013   0.86887   1.000
    C42     C    0.21945   0.25883   0.68568   1.000
    C43     C    0.71947   0.25884   0.68567   1.000
    C44     C    0.32660   0.17013   0.60882   1.000
    C45     C    0.82661   0.17013   0.60881   1.000
    C46     C    0.30158   0.39139   0.92007   1.000
    C47     C    0.80158   0.39138   0.92007   1.000
    C48     C    0.18462   0.46620   0.99832   1.000
    C49     C    0.68462   0.46619   0.99831   1.000
    C50     C    0.00064   0.36736   0.84309   1.000
    C51     C    0.50065   0.36736   0.84307   1.000
    C52     C    0.10779   0.28375   0.75796   1.000
    C53     C    0.60780   0.28376   0.75794   1.000
    C54     C    0.23611   0.58299   0.93400   1.000
    C55     C    0.73612   0.58296   0.93398   1.000
    C56     C    0.19178   0.66583   0.99520   1.000
    C57     C    0.69180   0.66581   0.99520   1.000
    C58     C    0.18044   0.63254   0.90227   1.000
    C59     C    0.68046   0.63251   0.90225   1.000
    C60     C    0.06146   0.57051   0.84744   1.000
    C61     C    0.56146   0.57051   0.84743   1.000
    C62     C    0.46671   0.59007   0.79760   1.000
    C63     C    0.96671   0.59008   0.79769   1.000
    C64     C    0.36164   0.57856   0.70945   1.000
    C65     C    0.86165   0.57855   0.70945   1.000
    C66     C    0.21954   0.42675   0.74121   1.000
    C67     C    0.71957   0.42673   0.74100   1.000
    C68     C    0.32682   0.43866   0.82995   1.000
    C69     C    0.82684   0.43865   0.82995   1.000
    C70     C    0.30151   0.52849   0.60820   1.000
    C71     C    0.80152   0.52850   0.60821   1.000
    C72     C    0.18444   0.53203   0.53342   1.000
    C73     C    0.68444   0.53204   0.53344   1.000
    C74     C    0.00050   0.47568   0.63271   1.000
    C75     C    0.50051   0.47566   0.63270   1.000
    C76     C    0.10774   0.47408   0.71633   1.000
    C77     C    0.60775   0.47406   0.71633   1.000
    C78     C    0.26392   0.64854   0.58296   1.000
    C79     C    0.76394   0.64858   0.58300   1.000
    C80     C    0.30824   0.67006   0.66589   1.000
    C81     C    0.80827   0.67007   0.66592   1.000
    C82     C    0.31966   0.72968   0.63244   1.000
    C83     C    0.81970   0.72971   0.63200   1.000
    C84     C    0.43849   0.72262   0.57027   1.000
    C85     C    0.93851   0.72264   0.57030   1.000
    C86     C    0.03320   0.79199   0.59006   1.000
    C87     C    0.53320   0.79198   0.59000   1.000
    C88     C    0.13829   0.86886   0.57860   1.000
    C89     C    0.63830   0.86885   0.57864   1.000
    C90     C    0.28047   0.68601   0.42670   1.000
    C91     C    0.78048   0.68599   0.42670   1.000
    C92     C    0.17319   0.60901   0.43854   1.000
    C93     C    0.67320   0.60899   0.43853   1.000
    C94     C    0.19851   0.92033   0.52874   1.000
    C95     C    0.69851   0.92032   0.52872   1.000
    C96     C    0.31566   0.99872   0.53241   1.000
    C97     C    0.81566   0.99871   0.53239   1.000
    C98     C    0.49950   0.84344   0.47590   1.000
    C99     C    0.99951   0.84343   0.47590   1.000
    C100    C    0.39217   0.75813   0.47417   1.000
    C101    C    0.89218   0.75812   0.47416   1.000
    C102    C    0.26412   0.93402   0.35108   1.000
    C103    C    0.76413   0.93402   0.35107   1.000
    C104    C    0.30847   0.99533   0.32931   1.000
    C105    C    0.80849   0.99533   0.32931   1.000
    C106    C    0.31989   0.90240   0.26986   1.000
    C107    C    0.81991   0.90240   0.26980   1.000
    C108    C    0.43883   0.84769   0.27711   1.000
    C109    C    0.93884   0.84769   0.27711   1.000
    C110    C    0.03338   0.79802   0.20785   1.000
    C111    C    0.53338   0.79802   0.20785   1.000
    C112    C    0.13833   0.70986   0.13112   1.000
    C113    C    0.63833   0.70986   0.13112   1.000
    C114    C    0.28056   0.74115   0.31431   1.000
    C115    C    0.78056   0.74115   0.31430   1.000
    C116    C    0.17342   0.82985   0.39118   1.000
    C117    C    0.67341   0.82985   0.39118   1.000
    C118    C    0.19844   0.60860   0.07992   1.000
    C119    C    0.69844   0.60860   0.07992   1.000
    C120    C    0.31540   0.53379   0.00167   1.000
    C121    C    0.81540   0.53379   0.00168   1.000
    C122    C    0.49937   0.63262   0.15691   1.000
    C123    C    0.99937   0.63263   0.15692   1.000
    C124    C    0.39223   0.71623   0.24204   1.000
    C125    C    0.89222   0.71623   0.24205   1.000
    C126    C    0.26390   0.41702   0.06600   1.000
    C127    C    0.76392   0.41700   0.06600   1.000
    C128    C    0.30822   0.33417   0.00000   1.000
    C129    C    0.80824   0.33416   0.00000   1.000
    C130    C    0.31956   0.36747   0.09773   1.000
    C131    C    0.81959   0.36744   0.09772   1.000
    C132    C    0.43856   0.42948   0.15250   1.000
    C133    C    0.93858   0.42946   0.15255   1.000
    C134    C    0.03332   0.40990   0.20231   1.000
    C135    C    0.53331   0.40991   0.20230   1.000
    C136    C    0.13839   0.42142   0.29054   1.000
    C137    C    0.63838   0.42143   0.29054   1.000
    C138    C    0.28047   0.57324   0.25879   1.000
    C139    C    0.78046   0.57325   0.25879   1.000
    C140    C    0.17319   0.56133   0.17000   1.000
    C141    C    0.67320   0.56134   0.17000   1.000
    C142    C    0.19851   0.47149   0.39179   1.000
    C143    C    0.69851   0.47149   0.39179   1.000
    C144    C    0.31558   0.46795   0.46656   1.000
    C145    C    0.81558   0.46795   0.46656   1.000
    C146    C    0.49952   0.52432   0.36729   1.000
    C147    C    0.99951   0.52432   0.36729   1.000
    C148    C    0.39228   0.52592   0.28366   1.000
    C149    C    0.89228   0.52592   0.28366   1.000
    C150    C    0.18100   0.32599   0.38171   1.000
    C151    C    0.68101   0.32598   0.38171   1.000
    C152    C    0.09929   0.36450   0.41843   1.000
    C153    C    0.59929   0.36450   0.41844   1.000
    C154    C    0.04255   0.33021   0.44221   1.000
    C155    C    0.54255   0.33021   0.44221   1.000
    C156    C    0.46277   0.35527   0.47625   1.000
    C157    C    0.96278   0.35527   0.47623   1.000
    C158    C    0.40453   0.30568   0.48539   1.000
    C159    C    0.90454   0.30569   0.48539   1.000
    C160    C    0.41376   0.23195   0.44692   1.000
    C161    C    0.91378   0.23196   0.44692   1.000
    C162    C    0.35370   0.18815   0.45295   1.000
    C163    C    0.85371   0.18816   0.45295   1.000
    C164    C    0.28150   0.21639   0.49723   1.000
    C165    C    0.78151   0.21640   0.49723   1.000
    C166    C    0.27355   0.29027   0.53717   1.000
    C167    C    0.77356   0.29028   0.53716   1.000
    C168    C    0.33394   0.33391   0.53130   1.000
    C169    C    0.83396   0.33391   0.53130   1.000
    C170    C    0.21529   0.16894   0.49800   1.000
    C171    C    0.71530   0.16894   0.49889   1.000
    C172    C    0.23582   0.09982   0.48270   1.000
    C173    C    0.73583   0.09983   0.48270   1.000
    C174    C    0.17101   0.05548   0.48110   1.000
    C175    C    0.67102   0.05549   0.48113   1.000
    C176    C    0.06801   0.14192   0.51239   1.000
    C177    C    0.56802   0.14193   0.51239   1.000
    C178    C    0.12869   0.18956   0.51424   1.000
    C179    C    0.62870   0.18956   0.51425   1.000
    C180    C    0.18079   0.05609   0.67445   1.000
    C181    C    0.68080   0.05611   0.67440   1.000
    C182    C    0.09911   0.05417   0.63580   1.000
    C183    C    0.59911   0.05418   0.63580   1.000
    C184    C    0.04230   0.11203   0.66990   1.000
    C185    C    0.54230   0.11204   0.66990   1.000
    C186    C    0.46261   0.12095   0.64470   1.000
    C187    C    0.96262   0.12094   0.64476   1.000
    C188    C    0.40436   0.17953   0.69428   1.000
    C189    C    0.90436   0.17953   0.69427   1.000
    C190    C    0.41360   0.21486   0.76806   1.000
    C191    C    0.91361   0.21486   0.76806   1.000
    C192    C    0.35361   0.26464   0.81180   1.000
    C193    C    0.85361   0.26463   0.81180   1.000
    C194    C    0.28143   0.28057   0.78345   1.000
    C195    C    0.78144   0.28057   0.78344   1.000
    C196    C    0.27343   0.24652   0.70950   1.000
    C197    C    0.77344   0.24651   0.70950   1.000
    C198    C    0.33377   0.19708   0.66594   1.000
    C199    C    0.83378   0.19708   0.66593   1.000
    C200    C    0.21531   0.32971   0.83083   1.000
    C201    C    0.71532   0.32970   0.83082   1.000
    C202    C    0.23590   0.38270   0.89989   1.000
    C203    C    0.73590   0.38269   0.89988   1.000
    C204    C    0.17117   0.42551   0.94415   1.000
    C205    C    0.67118   0.42550   0.94410   1.000
    C206    C    0.06812   0.37032   0.85777   1.000
    C207    C    0.56813   0.37032   0.85775   1.000
    C208    C    0.12871   0.32448   0.81021   1.000
    C209    C    0.62872   0.32448   0.81019   1.000
    C210    C    0.18103   0.61829   0.94382   1.000
    C211    C    0.68105   0.61827   0.94380   1.000
    C212    C    0.09930   0.58155   0.94574   1.000
    C213    C    0.59931   0.58154   0.94573   1.000
    C214    C    0.04250   0.55793   0.88783   1.000
    C215    C    0.54251   0.55792   0.88782   1.000
    C216    C    0.46275   0.52386   0.87901   1.000
    C217    C    0.96277   0.52385   0.87901   1.000
    C218    C    0.40449   0.51469   0.82033   1.000
    C219    C    0.90450   0.51469   0.82034   1.000
    C220    C    0.41367   0.55310   0.78487   1.000
    C221    C    0.91368   0.55311   0.78487   1.000
    C222    C    0.35361   0.54702   0.73506   1.000
    C223    C    0.85362   0.54702   0.73507   1.000
    C224    C    0.28144   0.50275   0.71926   1.000
    C225    C    0.78146   0.50273   0.71926   1.000
    C226    C    0.27352   0.46288   0.75343   1.000
    C227    C    0.77354   0.46287   0.75343   1.000
    C228    C    0.33393   0.46878   0.80288   1.000
    C229    C    0.83395   0.46877   0.80288   1.000
    C230    C    0.21525   0.50096   0.67011   1.000
    C231    C    0.71526   0.50096   0.67010   1.000
    C232    C    0.23581   0.51701   0.61697   1.000
    C233    C    0.73582   0.51701   0.61698   1.000
    C234    C    0.17105   0.51854   0.57421   1.000
    C235    C    0.67106   0.51854   0.57422   1.000
    C236    C    0.06800   0.48737   0.62966   1.000
    C237    C    0.56801   0.48735   0.62966   1.000
    C238    C    0.12863   0.48560   0.67549   1.000
    C239    C    0.62864   0.48558   0.67549   1.000
    C240    C    0.31901   0.67399   0.61827   1.000
    C241    C    0.81903   0.67401   0.61831   1.000
    C242    C    0.40073   0.63548   0.58156   1.000
    C243    C    0.90074   0.63548   0.58156   1.000
    C244    C    0.45747   0.66977   0.55777   1.000
    C245    C    0.95749   0.66979   0.55780   1.000
    C246    C    0.03724   0.64472   0.52370   1.000
    C247    C    0.53725   0.64471   0.52376   1.000
    C248    C    0.09549   0.69431   0.51461   1.000
    C249    C    0.59549   0.69429   0.51400   1.000
    C250    C    0.08625   0.76803   0.55308   1.000
    C251    C    0.58626   0.76802   0.55307   1.000
    C252    C    0.14632   0.81184   0.54705   1.000
    C253    C    0.64632   0.81183   0.54704   1.000
    C254    C    0.21851   0.78360   0.50277   1.000
    C255    C    0.71852   0.78358   0.50277   1.000
    C256    C    0.22647   0.70972   0.46284   1.000
    C257    C    0.72647   0.70971   0.46283   1.000
    C258    C    0.16607   0.66608   0.46870   1.000
    C259    C    0.66608   0.66607   0.46869   1.000
    C260    C    0.28472   0.83105   0.50111   1.000
    C261    C    0.78472   0.83104   0.50110   1.000
    C262    C    0.26420   0.90017   0.51726   1.000
    C263    C    0.76420   0.90016   0.51724   1.000
    C264    C    0.32900   0.94450   0.51887   1.000
    C265    C    0.82901   0.94450   0.51886   1.000
    C266    C    0.43201   0.85807   0.48761   1.000
    C267    C    0.93201   0.85806   0.48761   1.000
    C268    C    0.37133   0.81043   0.48576   1.000
    C269    C    0.87133   0.81042   0.48570   1.000
    C270    C    0.31922   0.94389   0.32555   1.000
    C271    C    0.81924   0.94389   0.32554   1.000
    C272    C    0.40091   0.94582   0.36420   1.000
    C273    C    0.90092   0.94581   0.36419   1.000
    C274    C    0.45771   0.88795   0.33001   1.000
    C275    C    0.95773   0.88795   0.33001   1.000
    C276    C    0.03741   0.87904   0.35523   1.000
    C277    C    0.53741   0.87905   0.35523   1.000
    C278    C    0.09566   0.82046   0.30572   1.000
    C279    C    0.59566   0.82046   0.30572   1.000
    C280    C    0.08642   0.78513   0.23193   1.000
    C281    C    0.58642   0.78513   0.23193   1.000
    C282    C    0.14641   0.73535   0.18800   1.000
    C283    C    0.64641   0.73535   0.18800   1.000
    C284    C    0.21858   0.71942   0.21655   1.000
    C285    C    0.71858   0.71942   0.21655   1.000
    C286    C    0.22659   0.75347   0.29049   1.000
    C287    C    0.72658   0.75347   0.29049   1.000
    C288    C    0.16625   0.80290   0.33406   1.000
    C289    C    0.66624   0.80290   0.33406   1.000
    C290    C    0.28470   0.67028   0.16917   1.000
    C291    C    0.78470   0.67028   0.16917   1.000
    C292    C    0.26412   0.61729   0.10011   1.000
    C293    C    0.76412   0.61729   0.10011   1.000
    C294    C    0.32884   0.57449   0.05584   1.000
    C295    C    0.82885   0.57449   0.05585   1.000
    C296    C    0.43189   0.62967   0.14223   1.000
    C297    C    0.93189   0.62967   0.14224   1.000
    C298    C    0.37131   0.67550   0.18979   1.000
    C299    C    0.87130   0.67550   0.18980   1.000
    C300    C    0.31897   0.38171   0.05618   1.000
    C301    C    0.81899   0.38169   0.05618   1.000
    C302    C    0.40071   0.41845   0.05426   1.000
    C303    C    0.90072   0.41844   0.05426   1.000
    C304    C    0.45751   0.44207   0.11217   1.000
    C305    C    0.95753   0.44205   0.11216   1.000
    C306    C    0.03726   0.47612   0.12098   1.000
    C307    C    0.53726   0.47613   0.12098   1.000
    C308    C    0.09553   0.48529   0.17966   1.000
    C309    C    0.59553   0.48530   0.17966   1.000
    C310    C    0.08635   0.44687   0.21512   1.000
    C311    C    0.58635   0.44688   0.21512   1.000
    C312    C    0.14641   0.45296   0.26493   1.000
    C313    C    0.64641   0.45296   0.26490   1.000
    C314    C    0.21858   0.49724   0.28070   1.000
    C315    C    0.71858   0.49724   0.28073   1.000
    C316    C    0.22649   0.53711   0.24650   1.000
    C317    C    0.72649   0.53711   0.24656   1.000
    C318    C    0.16609   0.53121   0.19711   1.000
    C319    C    0.66609   0.53121   0.19711   1.000
    C320    C    0.28477   0.49902   0.32988   1.000
    C321    C    0.78477   0.49902   0.32988   1.000
    C322    C    0.26421   0.48298   0.38300   1.000
    C323    C    0.76421   0.48297   0.38301   1.000
    C324    C    0.32897   0.48144   0.42578   1.000
    C325    C    0.82897   0.48144   0.42570   1.000
    C326    C    0.43202   0.51262   0.37033   1.000
    C327    C    0.93202   0.51263   0.37033   1.000
    C328    C    0.37139   0.51439   0.32450   1.000
    C329    C    0.87138   0.51440   0.32450   1.000
    C330    C    0.08814   0.07545   0.49557   1.000
    C331    C    0.58814   0.07545   0.49556   1.000
    C332    C    0.08829   0.42002   0.92400   1.000
    C333    C    0.58830   0.42001   0.92419   1.000
    C334    C    0.08816   0.50411   0.57980   1.000
    C335    C    0.58817   0.50411   0.57985   1.000
    C336    C    0.41188   0.92454   0.50440   1.000
    C337    C    0.91188   0.92453   0.50442   1.000
    C338    C    0.41172   0.57997   0.07580   1.000
    C339    C    0.91172   0.57997   0.07581   1.000
    C340    C    0.41186   0.49587   0.42014   1.000
    C341    C    0.91186   0.49588   0.42014   1.000
    C342    C    0.43309   0.41781   0.50019   1.000
    C343    C    0.93310   0.41781   0.50018   1.000
    C344    C    0.08827   0.42542   0.42487   1.000
    C345    C    0.58828   0.42541   0.42488   1.000
    C346    C    0.43307   0.08243   0.58214   1.000
    C347    C    0.93308   0.08241   0.58214   1.000
    C348    C    0.08824   0.99976   0.57489   1.000
    C349    C    0.58825   0.99977   0.57488   1.000
    C350    C    0.43312   0.49987   0.91770   1.000
    C351    C    0.93312   0.49988   0.91773   1.000
    C352    C    0.08833   0.57497   0.00020   1.000
    C353    C    0.58833   0.57496   0.00019   1.000
    C354    C    0.06693   0.58218   0.49980   1.000
    C355    C    0.56693   0.58217   0.49980   1.000
    C356    C    0.41175   0.57457   0.57512   1.000
    C357    C    0.91175   0.57457   0.57510   1.000
    C358    C    0.06694   0.91756   0.41785   1.000
    C359    C    0.56695   0.91757   0.41785   1.000
    C360    C    0.41178   0.00023   0.42511   1.000
    C361    C    0.91179   0.00022   0.42511   1.000
    C362    C    0.06690   0.50012   0.08228   1.000
    C363    C    0.56690   0.50012   0.08227   1.000
    C364    C    0.41169   0.42503   0.99979   1.000
    C365    C    0.91170   0.42503   0.99900   1.000
    O366    O    0.31360   0.35794   0.02809   1.000
    O367    O    0.81362   0.35792   0.02809   1.000
    O368    O    0.59382   0.57825   0.97296   1.000
    O369    O    0.54417   0.53747   0.00009   1.000
    O370    O    0.09381   0.57826   0.97297   1.000
    O371    O    0.04417   0.53748   0.00010   1.000
    O372    O    0.32212   0.55414   0.02875   1.000
    O373    O    0.82213   0.55414   0.02876   1.000
    O374    O    0.35984   0.40008   0.05522   1.000
    O375    O    0.42911   0.43026   0.08322   1.000
    O376    O    0.40620   0.42174   0.02702   1.000
    O377    O    0.85986   0.40007   0.05522   1.000
    O378    O    0.92913   0.43025   0.08321   1.000
    O379    O    0.90621   0.42174   0.02663   1.000
    O380    O    0.37028   0.57723   0.06582   1.000
    O381    O    0.29648   0.59589   0.07798   1.000
    O382    O    0.87029   0.57723   0.06583   1.000
    O383    O    0.79648   0.59589   0.07798   1.000
    O384    O    0.29144   0.39937   0.06109   1.000
    O385    O    0.31927   0.37459   0.07695   1.000
    O386    O    0.79146   0.39935   0.06109   1.000
    O387    O    0.81929   0.37457   0.07695   1.000
    O388    O    0.42181   0.60482   0.10902   1.000
    O389    O    0.45587   0.53998   0.03790   1.000
    O390    O    0.92181   0.60482   0.10902   1.000
    O391    O    0.95587   0.53998   0.03791   1.000
    O392    O    0.23128   0.61294   0.09001   1.000
    O393    O    0.73128   0.61294   0.09001   1.000
    O394    O    0.55208   0.48812   0.10162   1.000
    O395    O    0.53346   0.50005   0.04113   1.000
    O396    O    0.05208   0.48812   0.10163   1.000
    O397    O    0.03345   0.50006   0.04114   1.000
    O398    O    0.27441   0.64378   0.13464   1.000
    O399    O    0.77441   0.64378   0.13464   1.000
    O400    O    0.99740   0.45909   0.11657   1.000
    O401    O    0.94805   0.43575   0.13236   1.000
    O402    O    0.49739   0.45910   0.11658   1.000
    O403    O    0.44803   0.43577   0.13234   1.000
    O404    O    0.56640   0.48071   0.15032   1.000
    O405    O    0.06640   0.48071   0.15032   1.000
    O406    O    0.14237   0.72260   0.15956   1.000
    O407    O    0.64237   0.72261   0.15956   1.000
    O408    O    0.46563   0.63114   0.14957   1.000
    O409    O    0.40160   0.65258   0.16601   1.000
    O410    O    0.96563   0.63115   0.14958   1.000
    O411    O    0.90160   0.65259   0.16602   1.000
    O412    O    0.32801   0.67289   0.17948   1.000
    O413    O    0.25164   0.69485   0.19286   1.000
    O414    O    0.82800   0.67289   0.17949   1.000
    O415    O    0.75164   0.69485   0.19286   1.000
    O416    O    0.16964   0.54627   0.18355   1.000
    O417    O    0.66964   0.54627   0.18355   1.000
    O418    O    0.13081   0.50825   0.18838   1.000
    O419    O    0.09094   0.46608   0.19739   1.000
    O420    O    0.63081   0.50825   0.18838   1.000
    O421    O    0.59094   0.46609   0.19739   1.000
    O422    O    0.68250   0.72739   0.20228   1.000
    O423    O    0.61642   0.76024   0.20996   1.000
    O424    O    0.18250   0.72738   0.20228   1.000
    O425    O    0.11642   0.76024   0.20996   1.000
    O426    O    0.38177   0.69587   0.21591   1.000
    O427    O    0.88176   0.69587   0.21593   1.000
    O428    O    0.19629   0.53416   0.22181   1.000
    O429    O    0.69629   0.53416   0.22184   1.000
    O430    O    0.55983   0.42839   0.20871   1.000
    O431    O    0.05983   0.42839   0.20871   1.000
    O432    O    0.05990   0.79157   0.21989   1.000
    O433    O    0.55990   0.79158   0.21989   1.000
    O434    O    0.61638   0.44992   0.24001   1.000
    O435    O    0.11638   0.44992   0.24002   1.000
    O436    O    0.22258   0.73644   0.25352   1.000
    O437    O    0.72258   0.73644   0.25352   1.000
    O438    O    0.09104   0.80279   0.26883   1.000
    O439    O    0.59104   0.80280   0.26883   1.000
    O440    O    0.25348   0.55518   0.25265   1.000
    O441    O    0.22254   0.51717   0.26360   1.000
    O442    O    0.75348   0.55518   0.25267   1.000
    O443    O    0.72253   0.51718   0.26364   1.000
    O444    O    0.68249   0.47510   0.27282   1.000
    O445    O    0.64239   0.43719   0.27772   1.000
    O446    O    0.18250   0.47510   0.27282   1.000
    O447    O    0.14240   0.43719   0.27774   1.000
    O448    O    0.81958   0.92315   0.29767   1.000
    O449    O    0.31956   0.92315   0.29771   1.000
    O450    O    0.94828   0.86782   0.30356   1.000
    O451    O    0.44827   0.86782   0.30356   1.000
    O452    O    0.25168   0.49813   0.30529   1.000
    O453    O    0.75167   0.49813   0.30530   1.000
    O454    O    0.38183   0.52015   0.30408   1.000
    O455    O    0.88183   0.52016   0.30408   1.000
    O456    O    0.75357   0.74731   0.30240   1.000
    O457    O    0.69641   0.77819   0.31228   1.000
    O458    O    0.25357   0.74731   0.30240   1.000
    O459    O    0.19642   0.77819   0.31228   1.000
    O460    O    0.13096   0.81168   0.31989   1.000
    O461    O    0.06654   0.84975   0.33047   1.000
    O462    O    0.63095   0.81168   0.31989   1.000
    O463    O    0.56654   0.84975   0.33047   1.000
    O464    O    0.32808   0.50671   0.32719   1.000
    O465    O    0.40170   0.51351   0.34742   1.000
    O466    O    0.82808   0.50671   0.32719   1.000
    O467    O    0.90170   0.51351   0.34742   1.000
    O468    O    0.81386   0.96961   0.32742   1.000
    O469    O    0.79168   0.93895   0.33830   1.000
    O470    O    0.86008   0.94485   0.34486   1.000
    O471    O    0.31385   0.96961   0.32743   1.000
    O472    O    0.29167   0.93896   0.33831   1.000
    O473    O    0.36006   0.94485   0.34487   1.000
    O474    O    0.77449   0.49100   0.35645   1.000
    O475    O    0.27449   0.49100   0.35644   1.000
    O476    O    0.99757   0.88350   0.34262   1.000
    O477    O    0.92932   0.91688   0.34710   1.000
    O478    O    0.49756   0.88350   0.34262   1.000
    O479    O    0.42931   0.91689   0.34710   1.000
    O480    O    0.16983   0.81638   0.36262   1.000
    O481    O    0.66983   0.81638   0.36262   1.000
    O482    O    0.18639   0.32796   0.35790   1.000
    O483    O    0.68640   0.32795   0.35790   1.000
    O484    O    0.05218   0.89830   0.38654   1.000
    O485    O    0.55218   0.89831   0.38654   1.000
    O486    O    0.90635   0.97302   0.39465   1.000
    O487    O    0.40634   0.97302   0.39465   1.000
    O488    O    0.46577   0.51847   0.36881   1.000
    O489    O    0.96576   0.51848   0.36881   1.000
    O490    O    0.18067   0.29814   0.37462   1.000
    O491    O    0.68068   0.29813   0.37462   1.000
    O492    O    0.92194   0.50426   0.39524   1.000
    O493    O    0.42194   0.50425   0.39524   1.000
    O494    O    0.20855   0.33871   0.39936   1.000
    O495    O    0.14014   0.34525   0.40007   1.000
    O496    O    0.70855   0.33870   0.39937   1.000
    O497    O    0.64015   0.34524   0.40007   1.000
    O498    O    0.23136   0.47723   0.38740   1.000
    O499    O    0.29659   0.48221   0.40439   1.000
    O500    O    0.73136   0.47723   0.38740   1.000
    O501    O    0.79659   0.48221   0.40436   1.000
    O502    O    0.94030   0.21998   0.42843   1.000
    O503    O    0.44029   0.21998   0.42843   1.000
    O504    O    0.53348   0.95879   0.45892   1.000
    O505    O    0.03347   0.95878   0.45892   1.000
    O506    O    0.09378   0.39496   0.42165   1.000
    O507    O    0.07092   0.34736   0.43032   1.000
    O508    O    0.59378   0.39495   0.42166   1.000
    O509    O    0.57092   0.34735   0.43032   1.000
    O510    O    0.37042   0.48866   0.42296   1.000
    O511    O    0.45594   0.49793   0.46007   1.000
    O512    O    0.87041   0.48866   0.42292   1.000
    O513    O    0.95593   0.49794   0.46007   1.000
    O514    O    0.85772   0.15964   0.43715   1.000
    O515    O    0.35771   0.15964   0.43715   1.000
    O516    O    0.04414   0.46271   0.46243   1.000
    O517    O    0.54415   0.46270   0.46244   1.000
    O518    O    0.95589   0.00011   0.46256   1.000
    O519    O    0.45589   0.00012   0.46256   1.000
    O520    O    0.82228   0.47470   0.44613   1.000
    O521    O    0.32228   0.47469   0.44617   1.000
    O522    O    0.75348   0.69785   0.44476   1.000
    O523    O    0.25347   0.69786   0.44477   1.000
    O524    O    0.05204   0.30379   0.43595   1.000
    O525    O    0.55204   0.30378   0.43596   1.000
    O526    O    0.66964   0.63753   0.45361   1.000
    O527    O    0.16963   0.63754   0.45362   1.000
    O528    O    0.50266   0.34274   0.45923   1.000
    O529    O    0.00266   0.34274   0.45922   1.000
    O530    O    0.38373   0.21005   0.44994   1.000
    O531    O    0.40915   0.26882   0.46615   1.000
    O532    O    0.88374   0.21006   0.44994   1.000
    O533    O    0.90916   0.26883   0.46615   1.000
    O534    O    0.81761   0.20228   0.47509   1.000
    O535    O    0.31760   0.20227   0.47509   1.000
    O536    O    0.69628   0.68789   0.46576   1.000
    O537    O    0.72250   0.74665   0.48280   1.000
    O538    O    0.19627   0.68790   0.46577   1.000
    O539    O    0.22249   0.74666   0.48280   1.000
    O540    O    0.67769   0.02838   0.47436   1.000
    O541    O    0.17768   0.02838   0.47435   1.000
    O542    O    0.63078   0.68018   0.49134   1.000
    O543    O    0.13078   0.68019   0.49166   1.000
    O544    O    0.76867   0.08975   0.47698   1.000
    O545    O    0.26866   0.08974   0.47698   1.000
    O546    O    0.88175   0.78427   0.47993   1.000
    O547    O    0.38175   0.78428   0.47996   1.000
    O548    O    0.96576   0.85074   0.48175   1.000
    O549    O    0.46576   0.85075   0.48175   1.000
    O550    O    0.93366   0.33048   0.48081   1.000
    O551    O    0.94794   0.38654   0.48820   1.000
    O552    O    0.43365   0.33047   0.48082   1.000
    O553    O    0.44793   0.38654   0.48822   1.000
    O554    O    0.20342   0.07765   0.48190   1.000
    O555    O    0.12957   0.06547   0.48834   1.000
    O556    O    0.70343   0.07766   0.48192   1.000
    O557    O    0.62958   0.06547   0.48834   1.000
    O558    O    0.72557   0.13439   0.49080   1.000
    O559    O    0.22556   0.13438   0.49035   1.000
    O560    O    0.86925   0.31980   0.50834   1.000
    O561    O    0.36924   0.31979   0.50834   1.000
    O562    O    0.90167   0.83424   0.48665   1.000
    O563    O    0.82803   0.82073   0.49340   1.000
    O564    O    0.40167   0.83425   0.48669   1.000
    O565    O    0.32803   0.82074   0.49343   1.000
    O566    O    0.92195   0.89129   0.49602   1.000
    O567    O    0.42194   0.89130   0.49600   1.000
    O568    O    0.54407   0.03773   0.49778   1.000
    O569    O    0.57808   0.10869   0.50398   1.000
    O570    O    0.04407   0.03772   0.49778   1.000
    O571    O    0.07807   0.10869   0.50398   1.000
    O572    O    0.74841   0.19267   0.49806   1.000
    O573    O    0.77754   0.25334   0.51720   1.000
    O574    O    0.24840   0.19266   0.49761   1.000
    O575    O    0.27753   0.25333   0.51720   1.000
    O576    O    0.17199   0.17925   0.50612   1.000
    O577    O    0.67200   0.17925   0.50657   1.000
    O578    O    0.03347   0.54109   0.49989   1.000
    O579    O    0.05209   0.61345   0.51175   1.000
    O580    O    0.53347   0.54108   0.49990   1.000
    O581    O    0.55209   0.61344   0.51178   1.000
    O582    O    0.96655   0.45890   0.50009   1.000
    O583    O    0.95588   0.53728   0.53755   1.000
    O584    O    0.04408   0.50205   0.53990   1.000
    O585    O    0.46655   0.45890   0.50009   1.000
    O586    O    0.45588   0.53728   0.53756   1.000
    O587    O    0.54409   0.50205   0.53992   1.000
    O588    O    0.95594   0.96227   0.50221   1.000
    O589    O    0.04412   0.99988   0.53744   1.000
    O590    O    0.96654   0.04120   0.54107   1.000
    O591    O    0.45594   0.96228   0.50220   1.000
    O592    O    0.54412   0.99989   0.53744   1.000
    O593    O    0.46654   0.04122   0.54107   1.000
    O594    O    0.75162   0.80731   0.50194   1.000
    O595    O    0.77446   0.86560   0.50917   1.000
    O596    O    0.25162   0.80732   0.50194   1.000
    O597    O    0.27446   0.86561   0.50918   1.000
    O598    O    0.18241   0.79772   0.52491   1.000
    O599    O    0.68242   0.79771   0.52490   1.000
    O600    O    0.37044   0.93452   0.51164   1.000
    O601    O    0.87045   0.93451   0.51164   1.000
    O602    O    0.09835   0.16574   0.51331   1.000
    O603    O    0.03426   0.14924   0.51824   1.000
    O604    O    0.59836   0.16575   0.51332   1.000
    O605    O    0.53427   0.14924   0.51824   1.000
    O606    O    0.56637   0.66950   0.51888   1.000
    O607    O    0.59087   0.73116   0.53353   1.000
    O608    O    0.11827   0.21571   0.52004   1.000
    O609    O    0.61828   0.21572   0.52004   1.000
    O610    O    0.06636   0.66951   0.51916   1.000
    O611    O    0.09087   0.73117   0.53385   1.000
    O612    O    0.79660   0.92233   0.51805   1.000
    O613    O    0.73135   0.91024   0.52298   1.000
    O614    O    0.29660   0.92234   0.51807   1.000
    O615    O    0.23135   0.91025   0.52300   1.000
    O616    O    0.82234   0.97160   0.52563   1.000
    O617    O    0.32233   0.97161   0.52564   1.000
    O618    O    0.99736   0.65725   0.54075   1.000
    O619    O    0.49736   0.65724   0.54076   1.000
    O620    O    0.80376   0.31210   0.53423   1.000
    O621    O    0.83040   0.36245   0.54638   1.000
    O622    O    0.30375   0.31209   0.53423   1.000
    O623    O    0.33038   0.36244   0.54635   1.000
    O624    O    0.17774   0.52528   0.55381   1.000
    O625    O    0.67775   0.52529   0.55383   1.000
    O626    O    0.74656   0.30214   0.55523   1.000
    O627    O    0.24655   0.30213   0.55524   1.000
    O628    O    0.61629   0.78992   0.55005   1.000
    O629    O    0.64231   0.84034   0.56284   1.000
    O630    O    0.11628   0.78994   0.55006   1.000
    O631    O    0.14230   0.84035   0.56283   1.000
    O632    O    0.55973   0.78000   0.57153   1.000
    O633    O    0.05973   0.78001   0.57157   1.000
    O634    O    0.44798   0.69619   0.56402   1.000
    O635    O    0.42910   0.65262   0.56966   1.000
    O636    O    0.94800   0.69621   0.56405   1.000
    O637    O    0.92911   0.65264   0.56968   1.000
    O638    O    0.12960   0.51132   0.57700   1.000
    O639    O    0.20343   0.51777   0.59559   1.000
    O640    O    0.62961   0.51132   0.57703   1.000
    O641    O    0.70344   0.51777   0.59560   1.000
    O642    O    0.59368   0.02697   0.60534   1.000
    O643    O    0.09367   0.02696   0.60535   1.000
    O644    O    0.90624   0.60503   0.57833   1.000
    O645    O    0.40624   0.60502   0.57834   1.000
    O646    O    0.07808   0.49574   0.60473   1.000
    O647    O    0.57809   0.49573   0.60475   1.000
    O648    O    0.35987   0.65473   0.59991   1.000
    O649    O    0.85989   0.65475   0.59993   1.000
    O650    O    0.44784   0.10169   0.61342   1.000
    O651    O    0.94785   0.10168   0.61345   1.000
    O652    O    0.29146   0.66127   0.60062   1.000
    O653    O    0.79148   0.66129   0.60066   1.000
    O654    O    0.26866   0.52275   0.61259   1.000
    O655    O    0.76867   0.52276   0.61260   1.000
    O656    O    0.83020   0.18361   0.63737   1.000
    O657    O    0.33018   0.18361   0.63738   1.000
    O658    O    0.22553   0.50899   0.64354   1.000
    O659    O    0.72554   0.50898   0.64354   1.000
    O660    O    0.31934   0.70184   0.62535   1.000
    O661    O    0.31362   0.67202   0.64208   1.000
    O662    O    0.81937   0.70186   0.62516   1.000
    O663    O    0.81365   0.67204   0.64211   1.000
    O664    O    0.53426   0.48150   0.63118   1.000
    O665    O    0.59833   0.48646   0.65257   1.000
    O666    O    0.03425   0.48152   0.63118   1.000
    O667    O    0.09832   0.48648   0.65257   1.000
    O668    O    0.57071   0.08311   0.65285   1.000
    O669    O    0.63995   0.05514   0.65510   1.000
    O670    O    0.07070   0.08310   0.65285   1.000
    O671    O    0.13994   0.05513   0.65513   1.000
    O672    O    0.50246   0.11649   0.65730   1.000
    O673    O    0.43348   0.15024   0.66949   1.000
    O674    O    0.00246   0.11649   0.65733   1.000
    O675    O    0.93349   0.15023   0.66952   1.000
    O676    O    0.70835   0.06104   0.66165   1.000
    O677    O    0.20834   0.06103   0.66169   1.000
    O678    O    0.86907   0.18831   0.68010   1.000
    O679    O    0.80361   0.22180   0.68771   1.000
    O680    O    0.36906   0.18831   0.68011   1.000
    O681    O    0.30360   0.22180   0.68772   1.000
    O682    O    0.05174   0.13217   0.69639   1.000
    O683    O    0.55174   0.13217   0.69639   1.000
    O684    O    0.67195   0.49327   0.67280   1.000
    O685    O    0.74836   0.50184   0.69468   1.000
    O686    O    0.17194   0.49328   0.67280   1.000
    O687    O    0.24834   0.50186   0.69468   1.000
    O688    O    0.68618   0.02805   0.67250   1.000
    O689    O    0.18616   0.02805   0.67257   1.000
    O690    O    0.68046   0.07685   0.70226   1.000
    O691    O    0.18045   0.07684   0.70230   1.000
    O692    O    0.11819   0.47984   0.69591   1.000
    O693    O    0.61820   0.47982   0.69591   1.000
    O694    O    0.74646   0.25267   0.69759   1.000
    O695    O    0.24644   0.25267   0.69759   1.000
    O696    O    0.90898   0.19719   0.73116   1.000
    O697    O    0.40898   0.19720   0.73117   1.000
    O698    O    0.85763   0.56279   0.72226   1.000
    O699    O    0.35763   0.56279   0.72226   1.000
    O700    O    0.27743   0.26354   0.74647   1.000
    O701    O    0.77744   0.26354   0.74647   1.000
    O702    O    0.31753   0.52488   0.72716   1.000
    O703    O    0.27748   0.48281   0.73634   1.000
    O704    O    0.81754   0.52488   0.72716   1.000
    O705    O    0.77750   0.48280   0.73634   1.000
    O706    O    0.38364   0.55006   0.75996   1.000
    O707    O    0.88365   0.55006   0.75997   1.000
    O708    O    0.74656   0.44480   0.74722   1.000
    O709    O    0.24653   0.44481   0.74732   1.000
    O710    O    0.30373   0.46583   0.77815   1.000
    O711    O    0.80374   0.46582   0.77815   1.000
    O712    O    0.61826   0.30412   0.78406   1.000
    O713    O    0.11825   0.30412   0.78409   1.000
    O714    O    0.94012   0.20841   0.78010   1.000
    O715    O    0.88361   0.23974   0.78993   1.000
    O716    O    0.44012   0.20842   0.78011   1.000
    O717    O    0.38360   0.23975   0.78993   1.000
    O718    O    0.81753   0.27260   0.79762   1.000
    O719    O    0.74838   0.30514   0.80713   1.000
    O720    O    0.31752   0.27260   0.79762   1.000
    O721    O    0.24837   0.30514   0.80714   1.000
    O722    O    0.44019   0.57159   0.79124   1.000
    O723    O    0.40908   0.53390   0.80260   1.000
    O724    O    0.94019   0.57159   0.79128   1.000
    O725    O    0.90909   0.53390   0.80260   1.000
    O726    O    0.36921   0.49173   0.81161   1.000
    O727    O    0.33037   0.45372   0.81642   1.000
    O728    O    0.86922   0.49173   0.81161   1.000
    O729    O    0.83039   0.45371   0.81642   1.000
    O730    O    0.67202   0.32709   0.82050   1.000
    O731    O    0.59843   0.34740   0.83397   1.000
    O732    O    0.17201   0.32710   0.82052   1.000
    O733    O    0.09842   0.34740   0.83399   1.000
    O734    O    0.85765   0.27738   0.84033   1.000
    O735    O    0.35765   0.27739   0.84030   1.000
    O736    O    0.43362   0.51928   0.84967   1.000
    O737    O    0.93363   0.51927   0.84967   1.000
    O738    O    0.72561   0.35620   0.86535   1.000
    O739    O    0.22560   0.35621   0.86536   1.000
    O740    O    0.53439   0.36884   0.85041   1.000
    O741    O    0.03438   0.36884   0.85043   1.000
    O742    O    0.55199   0.56421   0.86763   1.000
    O743    O    0.05198   0.56422   0.86763   1.000
    O744    O    0.57821   0.39517   0.89097   1.000
    O745    O    0.07821   0.39517   0.89089   1.000
    O746    O    0.00263   0.54089   0.88342   1.000
    O747    O    0.94794   0.51187   0.89837   1.000
    O748    O    0.50263   0.54089   0.88342   1.000
    O749    O    0.44794   0.51186   0.89836   1.000
    O750    O    0.57091   0.56973   0.91678   1.000
    O751    O    0.07090   0.56974   0.91679   1.000
    O752    O    0.76874   0.38704   0.90997   1.000
    O753    O    0.70354   0.40409   0.92199   1.000
    O754    O    0.26874   0.38705   0.90998   1.000
    O755    O    0.20353   0.40410   0.92202   1.000
    O756    O    0.68076   0.62539   0.92302   1.000
    O757    O    0.18074   0.62541   0.92305   1.000
    O758    O    0.46657   0.49993   0.95885   1.000
    O759    O    0.96656   0.49994   0.95887   1.000
    O760    O    0.12973   0.42277   0.93408   1.000
    O761    O    0.04415   0.46001   0.96200   1.000
    O762    O    0.62974   0.42275   0.93414   1.000
    O763    O    0.54415   0.46000   0.96209   1.000
    O764    O    0.70859   0.60062   0.93889   1.000
    O765    O    0.20857   0.60064   0.93891   1.000
    O766    O    0.64018   0.59991   0.94476   1.000
    O767    O    0.68642   0.64204   0.96950   1.000
    O768    O    0.14017   0.59992   0.94478   1.000
    O769    O    0.18641   0.64206   0.96951   1.000
    O770    O    0.67790   0.44584   0.97120   1.000
    O771    O    0.17790   0.44585   0.97123   1.000
    O772    O    0.95585   0.46251   0.99950   1.000
    O773    O    0.45585   0.46251   0.99989   1.000
loop_
    _geom_bond_atom_site_label_1
    _geom_bond_atom_site_label_2
    _geom_bond_distance
    _geom_bond_site_symmetry_2
    _ccdc_geom_bond_type
    C128   O366      0.57928      .   S
    C300   O366      0.57928      .   S
    C129   O367      0.57925      .   S
    C301   O367      0.57925      .   S
    C353   O368      0.63935  1_554   S
    C213   O368      0.63935      .   S
    C353   O369      1.06795      .   S
    C5     O369      1.06795  1_556   S
    C352   O370      0.63933  1_554   S
    C212   O370      0.63933      .   S
    C352   O371      1.06796      .   S
    C4     O371      1.06796      .   S
    C120   O372      0.54445      .   S
    C294   O372      0.54445      .   S
    C121   O373      0.54446      .   S
    C295   O373      0.54446      .   S
    C302   O374      0.75750      .   S
    C300   O374      0.75750      .   S
    C302   O375      0.70662      .   S
    C304   O375      0.70662      .   S
    C302   O376      0.63942      .   S
    C364   O376      0.63942  1_556   S
    C303   O377      0.75753      .   S
    C301   O377      0.75753      .   S
    C303   O378      0.70659      .   S
    C305   O378      0.70659      .   S
    C303   O379      0.64796      .   S
    C365   O379      0.64796  1_556   S
    C294   O380      0.67366      .   S
    C338   O380      0.67366      .   S
    C294   O381      0.69314      .   S
    C292   O381      0.69314      .   S
    C295   O382      0.67364      .   S
    C339   O382      0.67364      .   S
    C295   O383      0.69311      .   S
    C293   O383      0.69311      .   S
    C300   O384      0.55026      .   S
    C126   O384      0.55026      .   S
    C300   O385      0.54821      .   S
    C130   O385      0.54821      .   S
    C301   O386      0.55028      .   S
    C127   O386      0.55028      .   S
    C301   O387      0.54818      .   S
    C131   O387      0.54818      .   S
    C338   O388      0.67315      .   S
    C296   O388      0.67315      .   S
    C338   O389      1.09519      .   S
    C5     O389      1.09519  1_556   S
    C339   O390      0.67316      .   S
    C297   O390      0.67316      .   S
    C339   O391      1.09513      .   S
    C4     O391      1.09513  1_455   S
    C118   O392      0.54580      .   S
    C292   O392      0.54580      .   S
    C119   O393      0.54580      .   S
    C293   O393      0.54580      .   S
    C363   O394      0.64096      .   S
    C307   O394      0.64096      .   S
    C363   O395      1.03811      .   S
    C5     O395      1.03811  1_556   S
    C362   O396      0.64091      .   S
    C306   O396      0.64091      .   S
    C362   O397      1.03813      .   S
    C4     O397      1.03813      .   S
    C292   O398      0.70316      .   S
    C290   O398      0.70316      .   S
    C293   O399      0.70316      .   S
    C291   O399      0.70316      .   S
    C305   O400      0.70466      .   S
    C306   O400      0.70466  1_455   S
    C305   O401      0.54370      .   S
    C133   O401      0.54370      .   S
    C304   O402      0.70474      .   S
    C307   O402      0.70474      .   S
    C304   O403      0.54307      .   S
    C132   O403      0.54307      .   S
    C307   O404      0.75000      .   S
    C309   O404      0.75000      .   S
    C306   O405      0.75000      .   S
    C308   O405      0.75000      .   S
    C112   O406      0.54308      .   S
    C282   O406      0.54308      .   S
    C113   O407      0.54308      .   S
    C283   O407      0.54308      .   S
    C296   O408      0.54513      .   S
    C122   O408      0.54513      .   S
    C296   O409      0.69522      .   S
    C298   O409      0.69522      .   S
    C297   O410      0.54512      .   S
    C123   O410      0.54512      .   S
    C297   O411      0.69523      .   S
    C299   O411      0.69523      .   S
    C290   O412      0.70362      .   S
    C298   O412      0.70362      .   S
    C290   O413      0.73725      .   S
    C284   O413      0.73725      .   S
    C291   O414      0.70364      .   S
    C299   O414      0.70364      .   S
    C291   O415      0.73725      .   S
    C285   O415      0.73725      .   S
    C140   O416      0.54430      .   S
    C318   O416      0.54430      .   S
    C141   O417      0.54431      .   S
    C319   O417      0.54431      .   S
    C308   O418      0.70262      .   S
    C318   O418      0.70262      .   S
    C308   O419      0.70241      .   S
    C310   O419      0.70241      .   S
    C309   O420      0.70262      .   S
    C319   O420      0.70262      .   S
    C309   O421      0.70241      .   S
    C311   O421      0.70241      .   S
    C283   O422      0.70513      .   S
    C285   O422      0.70513      .   S
    C283   O423      0.69546      .   S
    C281   O423      0.69546      .   S
    C282   O424      0.70513      .   S
    C284   O424      0.70513      .   S
    C282   O425      0.69546      .   S
    C280   O425      0.69546      .   S
    C298   O426      0.54500      .   S
    C124   O426      0.54500      .   S
    C299   O427      0.54500      .   S
    C125   O427      0.54500      .   S
    C318   O428      0.69390      .   S
    C316   O428      0.69390      .   S
    C319   O429      0.69438      .   S
    C317   O429      0.69438      .   S
    C135   O430      0.54446      .   S
    C311   O430      0.54446      .   S
    C134   O431      0.54447      .   S
    C310   O431      0.54447      .   S
    C110   O432      0.54443      .   S
    C280   O432      0.54443      .   S
    C111   O433      0.54444      .   S
    C281   O433      0.54444      .   S
    C311   O434      0.69465      .   S
    C313   O434      0.69465      .   S
    C310   O435      0.69487      .   S
    C312   O435      0.69487      .   S
    C284   O436      0.70346      .   S
    C286   O436      0.70346      .   S
    C285   O437      0.70346      .   S
    C287   O437      0.70346      .   S
    C280   O438      0.70250      .   S
    C278   O438      0.70250      .   S
    C281   O439      0.70249      .   S
    C279   O439      0.70249      .   S
    C316   O440      0.54514      .   S
    C138   O440      0.54514      .   S
    C316   O441      0.70383      .   S
    C314   O441      0.70383      .   S
    C317   O442      0.54523      .   S
    C139   O442      0.54523      .   S
    C317   O443      0.70352      .   S
    C315   O443      0.70352      .   S
    C313   O444      0.70390      .   S
    C315   O444      0.70390      .   S
    C313   O445      0.54521      .   S
    C137   O445      0.54521      .   S
    C312   O446      0.70397      .   S
    C314   O446      0.70397      .   S
    C312   O447      0.54496      .   S
    C136   O447      0.54496      .   S
    C107   O448      0.54861      .   S
    C271   O448      0.54861      .   S
    C106   O449      0.54824      .   S
    C270   O449      0.54824      .   S
    C109   O450      0.54365      .   S
    C275   O450      0.54365      .   S
    C108   O451      0.54366      .   S
    C274   O451      0.54366      .   S
    C314   O452      0.73748      .   S
    C320   O452      0.73748      .   S
    C315   O453      0.73729      .   S
    C321   O453      0.73729      .   S
    C148   O454      0.54500      .   S
    C328   O454      0.54500      .   S
    C149   O455      0.54500      .   S
    C329   O455      0.54500      .   S
    C287   O456      0.54514      .   S
    C115   O456      0.54514      .   S
    C287   O457      0.69443      .   S
    C289   O457      0.69443      .   S
    C286   O458      0.54520      .   S
    C114   O458      0.54520      .   S
    C286   O459      0.69443      .   S
    C288   O459      0.69443      .   S
    C278   O460      0.70259      .   S
    C288   O460      0.70259      .   S
    C278   O461      0.74999      .   S
    C276   O461      0.74999      .   S
    C279   O462      0.70259      .   S
    C289   O462      0.70259      .   S
    C279   O463      0.74999      .   S
    C277   O463      0.74999      .   S
    C328   O464      0.70364      .   S
    C320   O464      0.70364      .   S
    C328   O465      0.69525      .   S
    C326   O465      0.69525      .   S
    C329   O466      0.70363      .   S
    C321   O466      0.70363      .   S
    C329   O467      0.69522      .   S
    C327   O467      0.69522      .   S
    C271   O468      0.54930      .   S
    C105   O468      0.54930      .   S
    C271   O469      0.55029      .   S
    C103   O469      0.55029      .   S
    C271   O470      0.75751      .   S
    C273   O470      0.75751      .   S
    C270   O471      0.54932      .   S
    C104   O471      0.54932      .   S
    C270   O472      0.55026      .   S
    C102   O472      0.55026      .   S
    C270   O473      0.75753      .   S
    C272   O473      0.75753      .   S
    C321   O474      0.70306      .   S
    C323   O474      0.70306      .   S
    C320   O475      0.70294      .   S
    C322   O475      0.70294      .   S
    C275   O476      0.70467      .   S
    C276   O476      0.70467  1_455   S
    C275   O477      0.70658      .   S
    C273   O477      0.70658      .   S
    C274   O478      0.70474      .   S
    C277   O478      0.70474      .   S
    C274   O479      0.70659      .   S
    C272   O479      0.70659      .   S
    C288   O480      0.54392      .   S
    C116   O480      0.54392      .   S
    C289   O481      0.54392      .   S
    C117   O481      0.54392      .   S
    C8     O482      0.54912      .   S
    C150   O482      0.54912      .   S
    C9     O483      0.54902      .   S
    C151   O483      0.54902      .   S
    C276   O484      0.64091      .   S
    C358   O484      0.64091      .   S
    C277   O485      0.64092      .   S
    C359   O485      0.64092      .   S
    C273   O486      0.63947      .   S
    C361   O486      0.63947  1_545   S
    C272   O487      0.63942      .   S
    C360   O487      0.63942  1_545   S
    C146   O488      0.54511      .   S
    C326   O488      0.54511      .   S
    C147   O489      0.54512      .   S
    C327   O489      0.54512      .   S
    C10    O490      0.54821      .   S
    C150   O490      0.54821      .   S
    C11    O491      0.54820      .   S
    C151   O491      0.54820      .   S
    C327   O492      0.67313      .   S
    C341   O492      0.67313      .   S
    C326   O493      0.67313      .   S
    C340   O493      0.67313      .   S
    C150   O494      0.55027      .   S
    C6     O494      0.55027      .   S
    C150   O495      0.75741      .   S
    C152   O495      0.75741      .   S
    C151   O496      0.55031      .   S
    C7     O496      0.55031      .   S
    C151   O497      0.75745      .   S
    C153   O497      0.75745      .   S
    C322   O498      0.54583      .   S
    C142   O498      0.54583      .   S
    C322   O499      0.69321      .   S
    C324   O499      0.69321      .   S
    C323   O500      0.54580      .   S
    C143   O500      0.54580      .   S
    C323   O501      0.69251      .   S
    C325   O501      0.69251      .   S
    C15    O502      0.54442      .   S
    C161   O502      0.54442      .   S
    C14    O503      0.54445      .   S
    C160   O503      0.54445      .   S
    C359   O504      1.04007      .   S
    C3     O504      1.04007  1_545   S
    C358   O505      1.04006      .   S
    C2     O505      1.04006      .   S
    C152   O506      0.63938      .   S
    C344   O506      0.63938      .   S
    C152   O507      0.70655      .   S
    C154   O507      0.70655      .   S
    C153   O508      0.63938      .   S
    C345   O508      0.63938      .   S
    C153   O509      0.70652      .   S
    C155   O509      0.70652      .   S
    C340   O510      0.67363      .   S
    C324   O510      0.67363      .   S
    C340   O511      1.09299      .   S
    C1     O511      1.09299      .   S
    C341   O512      0.67344      .   S
    C325   O512      0.67344      .   S
    C341   O513      1.09287      .   S
    C0     O513      1.09287  1_455   S
    C17    O514      0.54494      .   S
    C163   O514      0.54494      .   S
    C16    O515      0.54495      .   S
    C162   O515      0.54495      .   S
    C344   O516      1.06861      .   S
    C0     O516      1.06861      .   S
    C345   O517      1.06860      .   S
    C1     O517      1.06860      .   S
    C361   O518      1.06893      .   S
    C2     O518      1.06893  1_465   S
    C360   O519      1.06899      .   S
    C3     O519      1.06899      .   S
    C325   O520      0.54518      .   S
    C145   O520      0.54518      .   S
    C324   O521      0.54434      .   S
    C144   O521      0.54434      .   S
    C91    O522      0.54520      .   S
    C257   O522      0.54520      .   S
    C90    O523      0.54521      .   S
    C256   O523      0.54521      .   S
    C12    O524      0.54359      .   S
    C154   O524      0.54359      .   S
    C13    O525      0.54363      .   S
    C155   O525      0.54363      .   S
    C93    O526      0.54389      .   S
    C259   O526      0.54389      .   S
    C92    O527      0.54390      .   S
    C258   O527      0.54390      .   S
    C155   O528      0.70468      .   S
    C156   O528      0.70468      .   S
    C154   O529      0.70458      .   S
    C157   O529      0.70458  1_655   S
    C160   O530      0.69482      .   S
    C162   O530      0.69482      .   S
    C160   O531      0.70241      .   S
    C158   O531      0.70241      .   S
    C161   O532      0.69485      .   S
    C163   O532      0.69485      .   S
    C161   O533      0.70242      .   S
    C159   O533      0.70242      .   S
    C163   O534      0.70389      .   S
    C165   O534      0.70389      .   S
    C162   O535      0.70389      .   S
    C164   O535      0.70389      .   S
    C257   O536      0.69442      .   S
    C259   O536      0.69442      .   S
    C257   O537      0.70347      .   S
    C255   O537      0.70347      .   S
    C256   O538      0.69440      .   S
    C258   O538      0.69440      .   S
    C256   O539      0.70347      .   S
    C254   O539      0.70347      .   S
    C25    O540      0.54440      .   S
    C175   O540      0.54440      .   S
    C24    O541      0.54452      .   S
    C174   O541      0.54452      .   S
    C259   O542      0.69935      .   S
    C249   O542      0.69935      .   S
    C258   O543      0.70254      .   S
    C248   O543      0.70254      .   S
    C23    O544      0.54575      .   S
    C173   O544      0.54575      .   S
    C22    O545      0.54576      .   S
    C172   O545      0.54576      .   S
    C101   O546      0.54514      .   S
    C269   O546      0.54514      .   S
    C100   O547      0.54500      .   S
    C268   O547      0.54500      .   S
    C99    O548      0.54511      .   S
    C267   O548      0.54511      .   S
    C98    O549      0.54512      .   S
    C266   O549      0.54512      .   S
    C157   O550      0.74990      .   S
    C159   O550      0.74990      .   S
    C157   O551      0.64094      .   S
    C343   O551      0.64094      .   S
    C156   O552      0.74987      .   S
    C158   O552      0.74987      .   S
    C156   O553      0.64095      .   S
    C342   O553      0.64095      .   S
    C174   O554      0.69309      .   S
    C172   O554      0.69309      .   S
    C174   O555      0.67363      .   S
    C330   O555      0.67363      .   S
    C175   O556      0.69322      .   S
    C173   O556      0.69322      .   S
    C175   O557      0.67360      .   S
    C331   O557      0.67360      .   S
    C173   O558      0.70301      .   S
    C171   O558      0.70301      .   S
    C172   O559      0.70583      .   S
    C170   O559      0.70583      .   S
    C159   O560      0.70254      .   S
    C169   O560      0.70254      .   S
    C158   O561      0.70256      .   S
    C168   O561      0.70256      .   S
    C269   O562      0.69500      .   S
    C267   O562      0.69500      .   S
    C269   O563      0.70362      .   S
    C261   O563      0.70362      .   S
    C268   O564      0.69517      .   S
    C266   O564      0.69517      .   S
    C268   O565      0.70357      .   S
    C260   O565      0.70357      .   S
    C267   O566      0.67314      .   S
    C337   O566      0.67314      .   S
    C266   O567      0.67323      .   S
    C336   O567      0.67323      .   S
    C331   O568      1.09136      .   S
    C3     O568      1.09136      .   S
    C331   O569      0.67311      .   S
    C177   O569      0.67311      .   S
    C330   O570      1.09133      .   S
    C2     O570      1.09133  1_565   S
    C330   O571      0.67310      .   S
    C176   O571      0.67310      .   S
    C165   O572      0.73721      .   S
    C171   O572      0.73721      .   S
    C165   O573      0.70346      .   S
    C167   O573      0.70346      .   S
    C164   O574      0.73362      .   S
    C170   O574      0.73362      .   S
    C164   O575      0.70347      .   S
    C166   O575      0.70347      .   S
    C170   O576      0.70440      .   S
    C178   O576      0.70440      .   S
    C171   O577      0.70358      .   S
    C179   O577      0.70358      .   S
    C354   O578      1.03861      .   S
    C0     O578      1.03861      .   S
    C354   O579      0.64099      .   S
    C246   O579      0.64099      .   S
    C355   O580      1.03863      .   S
    C1     O580      1.03863      .   S
    C355   O581      0.64092      .   S
    C247   O581      0.64092      .   S
    C0     O582      1.03856  1_455   S
    C343   O582      1.03856      .   S
    C0     O583      1.06849  1_455   S
    C357   O583      1.06849      .   S
    C0     O584      1.09260      .   S
    C334   O584      1.09260      .   S
    C1     O585      1.03858      .   S
    C342   O585      1.03858      .   S
    C1     O586      1.06861      .   S
    C356   O586      1.06861      .   S
    C1     O587      1.09291      .   S
    C335   O587      1.09291      .   S
    C2     O588      1.09135  1_455   S
    C337   O588      1.09135      .   S
    C2     O589      1.06913      .   S
    C348   O589      1.06913      .   S
    C2     O590      1.03983  1_465   S
    C347   O590      1.03983      .   S
    C3     O591      1.09128  1_545   S
    C336   O591      1.09128      .   S
    C3     O592      1.06905  1_545   S
    C349   O592      1.06905      .   S
    C3     O593      1.03989      .   S
    C346   O593      1.03989      .   S
    C261   O594      0.73724      .   S
    C255   O594      0.73724      .   S
    C261   O595      0.70314      .   S
    C263   O595      0.70314      .   S
    C260   O596      0.73723      .   S
    C254   O596      0.73723      .   S
    C260   O597      0.70314      .   S
    C262   O597      0.70314      .   S
    C254   O598      0.70386      .   S
    C252   O598      0.70386      .   S
    C255   O599      0.70386      .   S
    C253   O599      0.70386      .   S
    C336   O600      0.67363      .   S
    C264   O600      0.67363      .   S
    C337   O601      0.67360      .   S
    C265   O601      0.67360      .   S
    C176   O602      0.69520      .   S
    C178   O602      0.69520      .   S
    C176   O603      0.54511      .   S
    C26    O603      0.54511      .   S
    C177   O604      0.69517      .   S
    C179   O604      0.69517      .   S
    C177   O605      0.54511      .   S
    C27    O605      0.54511      .   S
    C249   O606      0.75314      .   S
    C247   O606      0.75314      .   S
    C249   O607      0.70262      .   S
    C251   O607      0.70262      .   S
    C178   O608      0.54498      .   S
    C28    O608      0.54498      .   S
    C179   O609      0.54500      .   S
    C29    O609      0.54500      .   S
    C248   O610      0.74966      .   S
    C246   O610      0.74966      .   S
    C248   O611      0.70242      .   S
    C250   O611      0.70242      .   S
    C263   O612      0.69306      .   S
    C265   O612      0.69306      .   S
    C263   O613      0.54577      .   S
    C95    O613      0.54577      .   S
    C262   O614      0.69304      .   S
    C264   O614      0.69304      .   S
    C262   O615      0.54577      .   S
    C94    O615      0.54577      .   S
    C265   O616      0.54442      .   S
    C97    O616      0.54442      .   S
    C264   O617      0.54442      .   S
    C96    O617      0.54442      .   S
    C246   O618      0.70476  1_455   S
    C245   O618      0.70476      .   S
    C247   O619      0.70464      .   S
    C244   O619      0.70464      .   S
    C169   O620      0.69443      .   S
    C167   O620      0.69443      .   S
    C169   O621      0.54389      .   S
    C21    O621      0.54389      .   S
    C168   O622      0.69444      .   S
    C166   O622      0.69444      .   S
    C168   O623      0.54387      .   S
    C20    O623      0.54387      .   S
    C72    O624      0.54441      .   S
    C234   O624      0.54441      .   S
    C73    O625      0.54443      .   S
    C235   O625      0.54443      .   S
    C167   O626      0.54523      .   S
    C19    O626      0.54523      .   S
    C166   O627      0.54518      .   S
    C18    O627      0.54518      .   S
    C253   O628      0.69483      .   S
    C251   O628      0.69483      .   S
    C253   O629      0.54495      .   S
    C89    O629      0.54495      .   S
    C252   O630      0.69483      .   S
    C250   O630      0.69483      .   S
    C252   O631      0.54492      .   S
    C88    O631      0.54492      .   S
    C251   O632      0.54417      .   S
    C87    O632      0.54417      .   S
    C250   O633      0.54444      .   S
    C86    O633      0.54444      .   S
    C244   O634      0.54363      .   S
    C84    O634      0.54363      .   S
    C244   O635      0.70658      .   S
    C242   O635      0.70658      .   S
    C245   O636      0.54363      .   S
    C85    O636      0.54363      .   S
    C245   O637      0.70654      .   S
    C243   O637      0.70654      .   S
    C234   O638      0.67351      .   S
    C334   O638      0.67351      .   S
    C234   O639      0.69305      .   S
    C232   O639      0.69305      .   S
    C235   O640      0.67359      .   S
    C335   O640      0.67359      .   S
    C235   O641      0.69301      .   S
    C233   O641      0.69301      .   S
    C349   O642      0.63948  1_565   S
    C183   O642      0.63948      .   S
    C348   O643      0.63944  1_565   S
    C182   O643      0.63944      .   S
    C357   O644      0.63931      .   S
    C243   O644      0.63931      .   S
    C356   O645      0.63938      .   S
    C242   O645      0.63938      .   S
    C334   O646      0.67358      .   S
    C236   O646      0.67358      .   S
    C335   O647      0.67320      .   S
    C237   O647      0.67320      .   S
    C242   O648      0.75742      .   S
    C240   O648      0.75742      .   S
    C243   O649      0.75744      .   S
    C241   O649      0.75744      .   S
    C346   O650      0.64043      .   S
    C186   O650      0.64043      .   S
    C347   O651      0.64093      .   S
    C187   O651      0.64093      .   S
    C78    O652      0.55026      .   S
    C240   O652      0.55026      .   S
    C79    O653      0.55029      .   S
    C241   O653      0.55029      .   S
    C70    O654      0.54577      .   S
    C232   O654      0.54577      .   S
    C71    O655      0.54577      .   S
    C233   O655      0.54577      .   S
    C45    O656      0.54392      .   S
    C199   O656      0.54392      .   S
    C44    O657      0.54392      .   S
    C198   O657      0.54392      .   S
    C232   O658      0.70311      .   S
    C230   O658      0.70311      .   S
    C233   O659      0.70299      .   S
    C231   O659      0.70299      .   S
    C240   O660      0.54822      .   S
    C82    O660      0.54822      .   S
    C240   O661      0.54910      .   S
    C80    O661      0.54910      .   S
    C241   O662      0.54971      .   S
    C83    O662      0.54971      .   S
    C241   O663      0.54905      .   S
    C81    O663      0.54905      .   S
    C237   O664      0.54511      .   S
    C75    O664      0.54511      .   S
    C237   O665      0.69520      .   S
    C239   O665      0.69520      .   S
    C236   O666      0.54514      .   S
    C74    O666      0.54514      .   S
    C236   O667      0.69525      .   S
    C238   O667      0.69525      .   S
    C183   O668      0.70650      .   S
    C185   O668      0.70650      .   S
    C183   O669      0.75724      .   S
    C181   O669      0.75724      .   S
    C182   O670      0.70650      .   S
    C184   O670      0.70650      .   S
    C182   O671      0.75750      .   S
    C180   O671      0.75750      .   S
    C186   O672      0.70464      .   S
    C185   O672      0.70464      .   S
    C186   O673      0.75021      .   S
    C188   O673      0.75021      .   S
    C187   O674      0.70426  1_655   S
    C184   O674      0.70426      .   S
    C187   O675      0.74999      .   S
    C189   O675      0.74999      .   S
    C31    O676      0.55006      .   S
    C181   O676      0.55006      .   S
    C30    O677      0.55022      .   S
    C180   O677      0.55022      .   S
    C199   O678      0.70258      .   S
    C189   O678      0.70258      .   S
    C199   O679      0.69444      .   S
    C197   O679      0.69444      .   S
    C198   O680      0.70260      .   S
    C188   O680      0.70260      .   S
    C198   O681      0.69440      .   S
    C196   O681      0.69440      .   S
    C184   O682      0.54425      .   S
    C36    O682      0.54425      .   S
    C185   O683      0.54423      .   S
    C37    O683      0.54423      .   S
    C231   O684      0.70366      .   S
    C239   O684      0.70366      .   S
    C231   O685      0.73743      .   S
    C225   O685      0.73743      .   S
    C230   O686      0.70363      .   S
    C238   O686      0.70363      .   S
    C230   O687      0.73726      .   S
    C224   O687      0.73726      .   S
    C33    O688      0.59947      .   S
    C181   O688      0.59947      .   S
    C32    O689      0.59959      .   S
    C180   O689      0.59959      .   S
    C181   O690      0.54854      .   S
    C35    O690      0.54854      .   S
    C180   O691      0.54824      .   S
    C34    O691      0.54824      .   S
    C238   O692      0.54499      .   S
    C76    O692      0.54499      .   S
    C239   O693      0.54502      .   S
    C77    O693      0.54502      .   S
    C43    O694      0.54526      .   S
    C197   O694      0.54526      .   S
    C42    O695      0.54521      .   S
    C196   O695      0.54521      .   S
    C189   O696      0.70249      .   S
    C191   O696      0.70249      .   S
    C188   O697      0.70240      .   S
    C190   O697      0.70240      .   S
    C65    O698      0.54497      .   S
    C223   O698      0.54497      .   S
    C64    O699      0.54493      .   S
    C222   O699      0.54493      .   S
    C196   O700      0.70356      .   S
    C194   O700      0.70356      .   S
    C197   O701      0.70346      .   S
    C195   O701      0.70346      .   S
    C224   O702      0.70392      .   S
    C222   O702      0.70392      .   S
    C224   O703      0.70351      .   S
    C226   O703      0.70351      .   S
    C225   O704      0.70394      .   S
    C223   O704      0.70394      .   S
    C225   O705      0.70345      .   S
    C227   O705      0.70345      .   S
    C222   O706      0.69489      .   S
    C220   O706      0.69489      .   S
    C223   O707      0.69484      .   S
    C221   O707      0.69484      .   S
    C67    O708      0.54499      .   S
    C227   O708      0.54499      .   S
    C66    O709      0.54523      .   S
    C226   O709      0.54523      .   S
    C226   O710      0.69439      .   S
    C228   O710      0.69439      .   S
    C227   O711      0.69441      .   S
    C229   O711      0.69441      .   S
    C53    O712      0.54499      .   S
    C209   O712      0.54499      .   S
    C52    O713      0.54501      .   S
    C208   O713      0.54501      .   S
    C191   O714      0.54442      .   S
    C39    O714      0.54442      .   S
    C191   O715      0.69485      .   S
    C193   O715      0.69485      .   S
    C190   O716      0.54450      .   S
    C38    O716      0.54450      .   S
    C190   O717      0.69484      .   S
    C192   O717      0.69484      .   S
    C195   O718      0.70395      .   S
    C193   O718      0.70395      .   S
    C195   O719      0.73725      .   S
    C201   O719      0.73725      .   S
    C194   O720      0.70390      .   S
    C192   O720      0.70390      .   S
    C194   O721      0.73725      .   S
    C200   O721      0.73725      .   S
    C220   O722      0.54456      .   S
    C62    O722      0.54456      .   S
    C220   O723      0.70238      .   S
    C218   O723      0.70238      .   S
    C221   O724      0.54445      .   S
    C63    O724      0.54445      .   S
    C221   O725      0.70245      .   S
    C219   O725      0.70245      .   S
    C228   O726      0.70262      .   S
    C218   O726      0.70262      .   S
    C228   O727      0.54391      .   S
    C68    O727      0.54391      .   S
    C229   O728      0.70262      .   S
    C219   O728      0.70262      .   S
    C229   O729      0.54392      .   S
    C69    O729      0.54392      .   S
    C209   O730      0.70364      .   S
    C201   O730      0.70364      .   S
    C209   O731      0.69523      .   S
    C207   O731      0.69523      .   S
    C208   O732      0.70362      .   S
    C200   O732      0.70362      .   S
    C208   O733      0.69522      .   S
    C206   O733      0.69522      .   S
    C193   O734      0.54493      .   S
    C41    O734      0.54493      .   S
    C192   O735      0.54425      .   S
    C40    O735      0.54425      .   S
    C218   O736      0.74997      .   S
    C216   O736      0.74997      .   S
    C219   O737      0.74994      .   S
    C217   O737      0.74994      .   S
    C201   O738      0.70315      .   S
    C203   O738      0.70315      .   S
    C200   O739      0.70316      .   S
    C202   O739      0.70316      .   S
    C51    O740      0.54512      .   S
    C207   O740      0.54512      .   S
    C50    O741      0.54513      .   S
    C206   O741      0.54513      .   S
    C61    O742      0.54371      .   S
    C215   O742      0.54371      .   S
    C60    O743      0.54369      .   S
    C214   O743      0.54369      .   S
    C207   O744      0.67320      .   S
    C333   O744      0.67320      .   S
    C206   O745      0.67170      .   S
    C332   O745      0.67170      .   S
    C217   O746      0.70466  1_655   S
    C214   O746      0.70466      .   S
    C217   O747      0.64100      .   S
    C351   O747      0.64100      .   S
    C216   O748      0.70473      .   S
    C215   O748      0.70473      .   S
    C216   O749      0.64083      .   S
    C350   O749      0.64083      .   S
    C215   O750      0.70661      .   S
    C213   O750      0.70661      .   S
    C214   O751      0.70660      .   S
    C212   O751      0.70660      .   S
    C203   O752      0.54579      .   S
    C47    O752      0.54579      .   S
    C203   O753      0.69295      .   S
    C205   O753      0.69295      .   S
    C202   O754      0.54578      .   S
    C46    O754      0.54578      .   S
    C202   O755      0.69311      .   S
    C204   O755      0.69311      .   S
    C59    O756      0.54821      .   S
    C211   O756      0.54821      .   S
    C58    O757      0.54826      .   S
    C210   O757      0.54826      .   S
    C350   O758      1.03822      .   S
    C5     O758      1.03822      .   S
    C351   O759      1.03802      .   S
    C4     O759      1.03802  1_454   S
    C332   O760      0.67424      .   S
    C204   O760      0.67424      .   S
    C332   O761      1.09591      .   S
    C4     O761      1.09591  1_554   S
    C333   O762      0.67350      .   S
    C205   O762      0.67350      .   S
    C333   O763      1.09514      .   S
    C5     O763      1.09514      .   S
    C55    O764      0.55026      .   S
    C211   O764      0.55026      .   S
    C54    O765      0.55028      .   S
    C210   O765      0.55028      .   S
    C211   O766      0.75751      .   S
    C213   O766      0.75751      .   S
    C211   O767      0.54887      .   S
    C57    O767      0.54887      .   S
    C210   O768      0.75752      .   S
    C212   O768      0.75752      .   S
    C210   O769      0.54874      .   S
    C56    O769      0.54874      .   S
    C205   O770      0.54473      .   S
    C49    O770      0.54473      .   S
    C204   O771      0.54447      .   S
    C48    O771      0.54447      .   S
    C365   O772      1.06460      .   S
    C4     O772      1.06460  1_454   S
    C364   O773      1.06792      .   S
    C5     O773      1.06792      .   S
