# CIF file generated by openbabel 2.4.90, see http://openbabel.sf.net
data_I
_chemical_name_common ''
_cell_length_a 14.172
_cell_length_b 15
_cell_length_c 15.368
_cell_angle_alpha 90.097
_cell_angle_beta 90.015
_cell_angle_gamma 90.035
_space_group_name_H-M_alt 'P 1'
_space_group_name_Hall 'P 1'
loop_
    _symmetry_equiv_pos_as_xyz
    x,y,z
loop_
    _atom_site_label
    _atom_site_type_symbol
    _atom_site_fract_x
    _atom_site_fract_y
    _atom_site_fract_z
    _atom_site_occupancy
    N0      N    0.76112   0.49459   0.49353   1.000
    N1      N    0.23905   0.50545   0.50648   1.000
    N2      N    0.73996   0.99442   0.50614   1.000
    N3      N    0.26108   0.00569   0.49285   1.000
    N4      N    0.01827   0.27053   0.73920   1.000
    N5      N    0.98179   0.23007   0.23931   1.000
    N6      N    0.26062   0.50559   0.00631   1.000
    N7      N    0.51902   0.22929   0.73972   1.000
    N8      N    0.01994   0.77041   0.76002   1.000
    N9      N    0.73977   0.49450   0.99298   1.000
    N10     N    0.76123   0.99432   0.00601   1.000
    N11     N    0.48119   0.26994   0.23987   1.000
    N12     N    0.98259   0.72949   0.26071   1.000
    N13     N    0.48117   0.77060   0.25997   1.000
    N14     N    0.51895   0.73004   0.75997   1.000
    N15     N    0.23907   0.00560   0.99338   1.000
    Zr16    Zr   0.38728   0.80439   0.96033   1.000
    O17     O    0.34584   0.71657   0.97721   1.000
    O18     O    0.41895   0.79945   0.05132   1.000
    O19     O    0.34299   0.87042   0.96913   1.000
    Zr20    Zr   0.62590   0.79299   0.06654   1.000
    O21     O    0.58520   0.78491   0.13108   1.000
    O22     O    0.58932   0.77623   0.97603   1.000
    O23     O    0.66519   0.70378   0.04831   1.000
    O24     O    0.66618   0.85931   0.04963   1.000
    Zr25    Zr   0.61280   0.19560   0.03946   1.000
    O26     O    0.65717   0.12955   0.03055   1.000
    O27     O    0.65435   0.28344   0.02246   1.000
    O28     O    0.58117   0.20051   0.94846   1.000
    Zr29    Zr   0.00007   0.99993   0.99999   1.000
    Zr30    Zr   0.38742   0.30448   0.53981   1.000
    O31     O    0.34606   0.21667   0.52270   1.000
    O32     O    0.41900   0.29935   0.44870   1.000
    O33     O    0.34307   0.37043   0.53092   1.000
    Zr34    Zr   0.00006   0.49997   0.49999   1.000
    Zr35    Zr   0.50099   0.99987   0.49982   1.000
    Zr36    Zr   0.12729   0.70703   0.06680   1.000
    O37     O    0.08656   0.71515   0.13153   1.000
    O38     O    0.16685   0.64064   0.04991   1.000
    O39     O    0.09061   0.72391   0.97617   1.000
    O40     O    0.16583   0.79633   0.04857   1.000
    Zr41    Zr   0.11076   0.30446   0.03775   1.000
    O42     O    0.15264   0.21661   0.02145   1.000
    O43     O    0.07948   0.29946   0.94723   1.000
    O44     O    0.15563   0.37044   0.02949   1.000
    Zr45    Zr   0.11125   0.80460   0.46219   1.000
    O46     O    0.15613   0.87056   0.47014   1.000
    O47     O    0.15294   0.71664   0.47847   1.000
    O48     O    0.08057   0.79995   0.55265   1.000
    Zr49    Zr   0.37418   0.20703   0.93336   1.000
    O50     O    0.41080   0.22377   0.02384   1.000
    O51     O    0.41493   0.21506   0.86875   1.000
    O52     O    0.33397   0.14067   0.95012   1.000
    O53     O    0.33501   0.29626   0.95142   1.000
    Zr54    Zr   0.88922   0.69564   0.96035   1.000
    O55     O    0.92073   0.70063   0.05152   1.000
    O56     O    0.84744   0.78342   0.97715   1.000
    O57     O    0.84449   0.62966   0.96904   1.000
    Zr58    Zr   0.12725   0.20691   0.43293   1.000
    O59     O    0.08631   0.21523   0.36824   1.000
    O60     O    0.08994   0.22389   0.52332   1.000
    O61     O    0.16699   0.14060   0.44967   1.000
    O62     O    0.16577   0.29617   0.45121   1.000
    Zr63    Zr   0.62586   0.29297   0.43343   1.000
    O64     O    0.66610   0.35938   0.45024   1.000
    O65     O    0.66520   0.20375   0.45144   1.000
    O66     O    0.58519   0.28469   0.36885   1.000
    O67     O    0.58925   0.27605   0.52385   1.000
    Zr68    Zr   0.50052   0.49995   0.99998   1.000
    Zr69    Zr   0.87270   0.29296   0.93301   1.000
    O70     O    0.90982   0.27622   0.02347   1.000
    O71     O    0.83429   0.20363   0.95111   1.000
    O72     O    0.83328   0.35939   0.94973   1.000
    O73     O    0.91368   0.28485   0.86829   1.000
    Zr74    Zr   0.61260   0.69558   0.46007   1.000
    O75     O    0.65701   0.62963   0.46901   1.000
    O76     O    0.65423   0.78341   0.47698   1.000
    O77     O    0.58104   0.70070   0.55116   1.000
    Zr78    Zr   0.87303   0.79311   0.56671   1.000
    O79     O    0.91059   0.77612   0.47646   1.000
    O80     O    0.83449   0.70386   0.54857   1.000
    O81     O    0.83356   0.85945   0.54974   1.000
    O82     O    0.91449   0.78497   0.63122   1.000
    Zr83    Zr   0.88924   0.19556   0.53758   1.000
    O84     O    0.92049   0.20055   0.44704   1.000
    O85     O    0.84458   0.12956   0.52931   1.000
    O86     O    0.84742   0.28347   0.52140   1.000
    Zr87    Zr   0.37419   0.70706   0.56646   1.000
    O88     O    0.41488   0.71532   0.63103   1.000
    O89     O    0.41082   0.72397   0.47597   1.000
    O90     O    0.33517   0.79633   0.54812   1.000
    O91     O    0.33399   0.64066   0.54969   1.000
    O92     O    0.07069   0.00147   0.00316   1.000
    O93     O    0.06702   0.28246   0.09638   1.000
    O94     O    0.06777   0.78236   0.40362   1.000
    O95     O    0.56815   0.71776   0.40197   1.000
    O96     O    0.57119   0.49840   0.00291   1.000
    O97     O    0.42964   0.50157   0.99692   1.000
    O98     O    0.43010   0.00157   0.50274   1.000
    O99     O    0.57156   0.99834   0.49663   1.000
    O100    O    0.56828   0.21761   0.09765   1.000
    O101    O    0.43183   0.78237   0.90215   1.000
    O102    O    0.43192   0.28225   0.59785   1.000
    O103    O    0.92947   0.49855   0.50321   1.000
    O104    O    0.92952   0.99841   0.99667   1.000
    O105    O    0.07068   0.50142   0.49677   1.000
    O106    O    0.93286   0.21774   0.59621   1.000
    O107    O    0.93346   0.71774   0.90215   1.000
loop_
    _geom_bond_atom_site_label_1
    _geom_bond_atom_site_label_2
    _geom_bond_distance
    _geom_bond_site_symmetry_2
    _ccdc_geom_bond_type
    Zr16   O17       1.46549      .   S
    N6     O17       3.41677  1_554   S
    Zr16   O18       1.47042  1_556   S
    N13    O18       3.35420      .   S
    Zr16   O19       1.18055      .   S
    N15    O19       2.53394  1_545   S
    Zr20   O21       1.15402      .   S
    N13    O21       2.47900      .   S
    Zr20   O22       1.50502  1_554   S
    N14    O22       3.53406      .   S
    Zr20   O23       1.47601      .   S
    N9     O23       3.41920  1_556   S
    Zr20   O24       1.17618      .   S
    N10    O24       2.52320      .   S
    Zr25   O26       1.18155      .   S
    N10    O26       2.53622  1_565   S
    Zr25   O27       1.46681      .   S
    N9     O27       3.41960  1_556   S
    Zr25   O28       1.47049  1_554   S
    N7     O28       3.35498      .   S
    Zr30   O31       1.46473      .   S
    N3     O31       3.41556      .   S
    Zr30   O32       1.47210      .   S
    N11    O32       3.35677      .   S
    Zr30   O33       1.18045      .   S
    N1     O33       2.53418      .   S
    Zr36   O37       1.15657      .   S
    N12    O37       2.48164  1_655   S
    Zr36   O38       1.17186      .   S
    N6     O38       2.51349      .   S
    Zr36   O39       1.50832  1_554   S
    N8     O39       3.54001      .   S
    Zr36   O40       1.47367      .   S
    N15    O40       3.41406  1_546   S
    Zr41   O42       1.46679      .   S
    N15    O42       3.42112  1_556   S
    Zr41   O43       1.46164  1_554   S
    N4     O43       3.33993      .   S
    Zr41   O44       1.18318      .   S
    N6     O44       2.53957      .   S
    Zr45   O46       1.18215      .   S
    N3     O46       2.53690  1_545   S
    Zr45   O47       1.46784      .   S
    N1     O47       3.42320      .   S
    Zr45   O48       1.45854      .   S
    N8     O48       3.33107      .   S
    Zr49   O50       1.50478  1_556   S
    N11    O50       3.53356      .   S
    Zr49   O51       1.15517      .   S
    N7     O51       2.48116      .   S
    Zr49   O52       1.17554      .   S
    N15    O52       2.52145      .   S
    Zr49   O53       1.47534      .   S
    N6     O53       3.41730  1_554   S
    Zr54   O55       1.47230  1_556   S
    N12    O55       3.35921      .   S
    Zr54   O56       1.46652      .   S
    N10    O56       3.42021  1_554   S
    Zr54   O57       1.18287      .   S
    N9     O57       2.53917      .   S
    Zr58   O59       1.15792      .   S
    N5     O59       2.48393  1_655   S
    Zr58   O60       1.50771      .   S
    N4     O60       3.53886      .   S
    Zr58   O61       1.17223      .   S
    N3     O61       2.51410      .   S
    Zr58   O62       1.47221      .   S
    N1     O62       3.41200      .   S
    Zr63   O64       1.17581      .   S
    N0     O64       2.52209      .   S
    Zr63   O65       1.47671      .   S
    N2     O65       3.42078  1_565   S
    Zr63   O66       1.15415      .   S
    N11    O66       2.47928      .   S
    Zr63   O67       1.50527      .   S
    N7     O67       3.53513      .   S
    Zr69   O70       1.50781  1_556   S
    N5     O70       3.53959      .   S
    Zr69   O71       1.47299      .   S
    N10    O71       3.41272  1_564   S
    Zr69   O72       1.17087      .   S
    N9     O72       2.51088      .   S
    Zr69   O73       1.15810      .   S
    N4     O73       2.48581  1_455   S
    Zr74   O75       1.18099      .   S
    N0     O75       2.53531      .   S
    Zr74   O76       1.46601      .   S
    N2     O76       3.41837      .   S
    Zr74   O77       1.47159      .   S
    N14    O77       3.35592      .   S
    Zr78   O79       1.50697      .   S
    N12    O79       3.53827      .   S
    Zr78   O80       1.47170      .   S
    N0     O80       3.41139      .   S
    Zr78   O81       1.17149      .   S
    N2     O81       2.51289      .   S
    Zr78   O82       1.15904      .   S
    N8     O82       2.48978  1_455   S
    Zr83   O84       1.46238      .   S
    N5     O84       3.33887      .   S
    Zr83   O85       1.18130      .   S
    N2     O85       2.53538  1_565   S
    Zr83   O86       1.46773      .   S
    N0     O86       3.42293      .   S
    Zr87   O88       1.15411      .   S
    N14    O88       2.47921      .   S
    Zr87   O89       1.50636      .   S
    N13    O89       3.53718      .   S
    Zr87   O90       1.47655      .   S
    N3     O90       3.42046  1_545   S
    Zr87   O91       1.17528      .   S
    N1     O91       2.52115      .   S
    N15    O92       2.39180  1_556   S
    Zr29   O92       1.00216  1_566   S
    Zr41   O93       1.14284      .   S
    N5     O93       2.62822  1_655   S
    Zr45   O94       1.13995      .   S
    N12    O94       2.62697  1_655   S
    Zr74   O95       1.14275      .   S
    N13    O95       2.62972      .   S
    Zr68   O96       1.00282  1_556   S
    N9     O96       2.39478  1_556   S
    Zr68   O97       1.00592      .   S
    N6     O97       2.40050  1_554   S
    Zr35   O98       1.00593  1_565   S
    N3     O98       2.40099      .   S
    Zr35   O99       1.00170      .   S
    N2     O99       2.39176      .   S
    Zr25   O100      1.14304      .   S
    N11    O100      2.62927      .   S
    Zr16   O101      1.14310      .   S
    N14    O101      2.62913      .   S
    N7     O102      2.62946      .   S
    Zr30   O102      1.14261      .   S
    N0     O103      2.39116      .   S
    Zr34   O103      1.00198  1_455   S
    Zr29   O104      1.00148  1_455   S
    N10    O104      2.39014  1_554   S
    N1     O105      2.39154      .   S
    Zr34   O105      1.00216      .   S
    Zr83   O106      1.14154      .   S
    N4     O106      2.62919  1_455   S
    Zr54   O107      1.14188      .   S
    N8     O107      2.62739  1_455   S
