# CIF file generated by openbabel 2.4.90, see http://openbabel.sf.net
data_I
_chemical_name_common ''
_cell_length_a 14.172
_cell_length_b 15
_cell_length_c 15.368
_cell_angle_alpha 90.097
_cell_angle_beta 90.015
_cell_angle_gamma 90.035
_space_group_name_H-M_alt 'P 1'
_space_group_name_Hall 'P 1'
loop_
    _symmetry_equiv_pos_as_xyz
    x,y,z
loop_
    _atom_site_label
    _atom_site_type_symbol
    _atom_site_fract_x
    _atom_site_fract_y
    _atom_site_fract_z
    _atom_site_occupancy
    N0      N    0.76112   0.49459   0.49353   1.000
    N1      N    0.23905   0.50545   0.50648   1.000
    N2      N    0.73996   0.99442   0.50614   1.000
    N3      N    0.26108   0.00569   0.49285   1.000
    N4      N    0.01827   0.27053   0.73920   1.000
    N5      N    0.98179   0.23007   0.23931   1.000
    N6      N    0.26062   0.50559   0.00631   1.000
    N7      N    0.51902   0.22929   0.73972   1.000
    N8      N    0.01994   0.77041   0.76002   1.000
    N9      N    0.73977   0.49450   0.99298   1.000
    N10     N    0.76123   0.99432   0.00601   1.000
    N11     N    0.48119   0.26994   0.23987   1.000
    N12     N    0.98259   0.72949   0.26071   1.000
    N13     N    0.48117   0.77060   0.25997   1.000
    N14     N    0.51895   0.73004   0.75997   1.000
    N15     N    0.23907   0.00560   0.99338   1.000
    Zr16    Zr   0.38728   0.80439   0.96033   1.000
    O17     O    0.44018   0.78336   0.90965   1.000
    O18     O    0.34584   0.71657   0.97721   1.000
    O19     O    0.41895   0.79945   0.05132   1.000
    O20     O    0.42348   0.78138   0.89466   1.000
    O21     O    0.34299   0.87042   0.96913   1.000
    Zr22    Zr   0.62590   0.79299   0.06654   1.000
    O23     O    0.58520   0.78491   0.13108   1.000
    O24     O    0.58932   0.77623   0.97603   1.000
    O25     O    0.66519   0.70378   0.04831   1.000
    O26     O    0.66618   0.85931   0.04963   1.000
    Zr27    Zr   0.61280   0.19560   0.03946   1.000
    O28     O    0.65717   0.12955   0.03055   1.000
    O29     O    0.55994   0.21663   0.09016   1.000
    O30     O    0.57662   0.21860   0.10515   1.000
    O31     O    0.65435   0.28344   0.02246   1.000
    O32     O    0.58117   0.20051   0.94846   1.000
    Zr33    Zr   0.00007   0.99993   0.99999   1.000
    O34     O    0.07074   0.98961   0.00294   1.000
    O35     O    0.07064   0.01332   0.00337   1.000
    O36     O    0.92947   0.01027   0.99689   1.000
    O37     O    0.92957   0.98655   0.99644   1.000
    Zr38    Zr   0.38742   0.30448   0.53981   1.000
    O39     O    0.44022   0.28324   0.59034   1.000
    O40     O    0.34606   0.21667   0.52270   1.000
    O41     O    0.42361   0.28126   0.60537   1.000
    O42     O    0.41900   0.29935   0.44870   1.000
    O43     O    0.34307   0.37043   0.53092   1.000
    Zr44    Zr   0.00006   0.49997   0.49999   1.000
    O45     O    0.07072   0.48958   0.49700   1.000
    O46     O    0.07064   0.51325   0.49655   1.000
    O47     O    0.92950   0.48672   0.50344   1.000
    O48     O    0.92943   0.51038   0.50299   1.000
    Zr49    Zr   0.50099   0.99987   0.49982   1.000
    O50     O    0.57165   0.01024   0.49679   1.000
    O51     O    0.42998   0.98966   0.50272   1.000
    O52     O    0.43022   0.01348   0.50275   1.000
    O53     O    0.57147   0.98643   0.49647   1.000
    Zr54    Zr   0.12729   0.70703   0.06680   1.000
    O55     O    0.08656   0.71515   0.13153   1.000
    O56     O    0.16685   0.64064   0.04991   1.000
    O57     O    0.09061   0.72391   0.97617   1.000
    O58     O    0.16583   0.79633   0.04857   1.000
    Zr59    Zr   0.11076   0.30446   0.03775   1.000
    O60     O    0.15264   0.21661   0.02145   1.000
    O61     O    0.07543   0.28152   0.10382   1.000
    O62     O    0.05861   0.28340   0.08893   1.000
    O63     O    0.07948   0.29946   0.94723   1.000
    O64     O    0.15563   0.37044   0.02949   1.000
    Zr65    Zr   0.11125   0.80460   0.46219   1.000
    O66     O    0.15613   0.87056   0.47014   1.000
    O67     O    0.05948   0.78330   0.41114   1.000
    O68     O    0.15294   0.71664   0.47847   1.000
    O69     O    0.08057   0.79995   0.55265   1.000
    O70     O    0.07606   0.78142   0.39610   1.000
    Zr71    Zr   0.37418   0.20703   0.93336   1.000
    O72     O    0.41080   0.22377   0.02384   1.000
    O73     O    0.41493   0.21506   0.86875   1.000
    O74     O    0.33397   0.14067   0.95012   1.000
    O75     O    0.33501   0.29626   0.95142   1.000
    Zr76    Zr   0.88922   0.69564   0.96035   1.000
    O77     O    0.92509   0.71870   0.89465   1.000
    O78     O    0.92073   0.70063   0.05152   1.000
    O79     O    0.84744   0.78342   0.97715   1.000
    O80     O    0.84449   0.62966   0.96904   1.000
    O81     O    0.94182   0.71679   0.90964   1.000
    Zr82    Zr   0.12725   0.20691   0.43293   1.000
    O83     O    0.08631   0.21523   0.36824   1.000
    O84     O    0.08994   0.22389   0.52332   1.000
    O85     O    0.16699   0.14060   0.44967   1.000
    O86     O    0.16577   0.29617   0.45121   1.000
    Zr87    Zr   0.62586   0.29297   0.43343   1.000
    O88     O    0.66610   0.35938   0.45024   1.000
    O89     O    0.66520   0.20375   0.45144   1.000
    O90     O    0.58519   0.28469   0.36885   1.000
    O91     O    0.58925   0.27605   0.52385   1.000
    Zr92    Zr   0.50052   0.49995   0.99998   1.000
    O93     O    0.42951   0.48966   0.99694   1.000
    O94     O    0.42977   0.51348   0.99689   1.000
    O95     O    0.57108   0.48649   0.00297   1.000
    O96     O    0.57130   0.51031   0.00286   1.000
    Zr97    Zr   0.87270   0.29296   0.93301   1.000
    O98     O    0.90982   0.27622   0.02347   1.000
    O99     O    0.83429   0.20363   0.95111   1.000
    O100    O    0.83328   0.35939   0.94973   1.000
    O101    O    0.91368   0.28485   0.86829   1.000
    Zr102   Zr   0.61260   0.69558   0.46007   1.000
    O103    O    0.57648   0.71873   0.39445   1.000
    O104    O    0.65701   0.62963   0.46901   1.000
    O105    O    0.65423   0.78341   0.47698   1.000
    O106    O    0.55982   0.71679   0.40948   1.000
    O107    O    0.58104   0.70070   0.55116   1.000
    Zr108   Zr   0.87303   0.79311   0.56671   1.000
    O109    O    0.91059   0.77612   0.47646   1.000
    O110    O    0.83449   0.70386   0.54857   1.000
    O111    O    0.83356   0.85945   0.54974   1.000
    O112    O    0.91449   0.78497   0.63122   1.000
    Zr113   Zr   0.88924   0.19556   0.53758   1.000
    O114    O    0.92049   0.20055   0.44704   1.000
    O115    O    0.84458   0.12956   0.52931   1.000
    O116    O    0.94119   0.21680   0.58872   1.000
    O117    O    0.92453   0.21868   0.60370   1.000
    O118    O    0.84742   0.28347   0.52140   1.000
    Zr119   Zr   0.37419   0.70706   0.56646   1.000
    O120    O    0.41488   0.71532   0.63103   1.000
    O121    O    0.41082   0.72397   0.47597   1.000
    O122    O    0.33517   0.79633   0.54812   1.000
    O123    O    0.33399   0.64066   0.54969   1.000
loop_
    _geom_bond_atom_site_label_1
    _geom_bond_atom_site_label_2
    _geom_bond_distance
    _geom_bond_site_symmetry_2
    _ccdc_geom_bond_type
    Zr16   O17       1.12607      .   S
    N14    O17       2.67837      .   S
    Zr16   O18       1.46549      .   S
    N6     O18       3.41677  1_554   S
    Zr16   O19       1.47042  1_556   S
    N13    O19       3.35420      .   S
    Zr16   O20       1.18332      .   S
    N14    O20       2.58958      .   S
    Zr16   O21       1.18055      .   S
    N15    O21       2.53394  1_545   S
    Zr22   O23       1.15402      .   S
    N13    O23       2.47900      .   S
    Zr22   O24       1.50502  1_554   S
    N14    O24       3.53406      .   S
    Zr22   O25       1.47601      .   S
    N9     O25       3.41920  1_556   S
    Zr22   O26       1.17618      .   S
    N10    O26       2.52320      .   S
    Zr27   O28       1.18155      .   S
    N10    O28       2.53622  1_565   S
    Zr27   O29       1.12584      .   S
    N11    O29       2.67863      .   S
    Zr27   O30       1.18342      .   S
    N11    O30       2.58959      .   S
    Zr27   O31       1.46681      .   S
    N9     O31       3.41960  1_556   S
    Zr27   O32       1.47049  1_554   S
    N7     O32       3.35498      .   S
    Zr33   O34       1.01448  1_556   S
    N15    O34       2.40197  1_546   S
    Zr33   O35       1.02115  1_566   S
    N15    O35       2.39483  1_556   S
    Zr33   O36       1.01381  1_465   S
    N10    O36       2.40032  1_564   S
    Zr33   O37       1.02053  1_455   S
    N10    O37       2.39318  1_554   S
    Zr38   O39       1.12490      .   S
    N7     O39       2.67926      .   S
    Zr38   O40       1.46473      .   S
    N3     O40       3.41556      .   S
    Zr38   O41       1.18346      .   S
    N7     O41       2.58932      .   S
    Zr38   O42       1.47210      .   S
    N11    O42       3.35677      .   S
    Zr38   O43       1.18045      .   S
    N1     O43       2.53418      .   S
    Zr44   O45       1.01446      .   S
    N1     O45       2.40169      .   S
    Zr44   O46       1.02106      .   S
    N1     O46       2.39455      .   S
    Zr44   O47       1.02088  1_455   S
    N0     O47       2.39418      .   S
    Zr44   O48       1.01429  1_455   S
    N0     O48       2.40129      .   S
    Zr49   O50       1.01450  1_565   S
    N2     O50       2.40147  1_565   S
    Zr49   O51       1.01885      .   S
    N3     O51       2.41058  1_545   S
    Zr49   O52       1.02451  1_565   S
    N3     O52       2.40467      .   S
    Zr49   O53       1.02046      .   S
    N2     O53       2.39535      .   S
    Zr54   O55       1.15657      .   S
    N12    O55       2.48164  1_655   S
    Zr54   O56       1.17186      .   S
    N6     O56       2.51349      .   S
    Zr54   O57       1.50832  1_554   S
    N8     O57       3.54001      .   S
    Zr54   O58       1.47367      .   S
    N15    O58       3.41406  1_546   S
    Zr59   O60       1.46679      .   S
    N15    O60       3.42112  1_556   S
    Zr59   O61       1.18381      .   S
    N5     O61       2.58802  1_655   S
    Zr59   O62       1.12505      .   S
    N5     O62       2.67810  1_655   S
    Zr59   O63       1.46164  1_554   S
    N4     O63       3.33993      .   S
    Zr59   O64       1.18318      .   S
    N6     O64       2.53957      .   S
    Zr65   O66       1.18215      .   S
    N3     O66       2.53690  1_545   S
    Zr65   O67       1.11996      .   S
    N12    O67       2.67852  1_655   S
    Zr65   O68       1.46784      .   S
    N1     O68       3.42320      .   S
    Zr65   O69       1.45854      .   S
    N8     O69       3.33107      .   S
    Zr65   O70       1.18296      .   S
    N12    O70       2.58500  1_655   S
    Zr71   O72       1.50478  1_556   S
    N11    O72       3.53356      .   S
    Zr71   O73       1.15517      .   S
    N7     O73       2.48116      .   S
    Zr71   O74       1.17554      .   S
    N15    O74       2.52145      .   S
    Zr71   O75       1.47534      .   S
    N6     O75       3.41730  1_554   S
    Zr76   O77       1.18253      .   S
    N8     O77       2.58753  1_455   S
    Zr76   O78       1.47230  1_556   S
    N12    O78       3.35921      .   S
    Zr76   O79       1.46652      .   S
    N10    O79       3.42021  1_554   S
    Zr76   O80       1.18287      .   S
    N9     O80       2.53917      .   S
    Zr76   O81       1.12447      .   S
    N8     O81       2.67696  1_455   S
    Zr82   O83       1.15792      .   S
    N5     O83       2.48393  1_655   S
    Zr82   O84       1.50771      .   S
    N4     O84       3.53886      .   S
    Zr82   O85       1.17223      .   S
    N3     O85       2.51410      .   S
    Zr82   O86       1.47221      .   S
    N1     O86       3.41200      .   S
    Zr87   O88       1.17581      .   S
    N0     O88       2.52209      .   S
    Zr87   O89       1.47671      .   S
    N2     O89       3.42078  1_565   S
    Zr87   O90       1.15415      .   S
    N11    O90       2.47928      .   S
    Zr87   O91       1.50527      .   S
    N7     O91       3.53513      .   S
    Zr92   O93       1.01910      .   S
    N6     O93       2.40985  1_554   S
    Zr92   O94       1.02424      .   S
    N6     O94       2.40444  1_554   S
    Zr92   O95       1.02129  1_556   S
    N9     O95       2.39862  1_556   S
    Zr92   O96       1.01592  1_556   S
    N9     O96       2.40425  1_556   S
    Zr97   O98       1.50781  1_556   S
    N5     O98       3.53959      .   S
    Zr97   O99       1.47299      .   S
    N10    O99       3.41272  1_564   S
    Zr97   O100      1.17087      .   S
    N9     O100      2.51088      .   S
    Zr97   O101      1.15810      .   S
    N4     O101      2.48581  1_455   S
    Zr102  O103      1.18350      .   S
    N13    O103      2.58971      .   S
    Zr102  O104      1.18099      .   S
    N0     O104      2.53531      .   S
    Zr102  O105      1.46601      .   S
    N2     O105      3.41837      .   S
    Zr102  O106      1.12519      .   S
    N13    O106      2.67940      .   S
    Zr102  O107      1.47159      .   S
    N14    O107      3.35592      .   S
    Zr108  O109      1.50697      .   S
    N12    O109      3.53827      .   S
    Zr108  O110      1.47170      .   S
    N0     O110      3.41139      .   S
    Zr108  O111      1.17149      .   S
    N2     O111      2.51289      .   S
    Zr108  O112      1.15904      .   S
    N8     O112      2.48978  1_455   S
    Zr113  O114      1.46238      .   S
    N5     O114      3.33887      .   S
    Zr113  O115      1.18130      .   S
    N2     O115      2.53538  1_565   S
    Zr113  O116      1.12235      .   S
    N4     O116      2.67999  1_455   S
    Zr113  O117      1.18377      .   S
    N4     O117      2.58799  1_455   S
    Zr113  O118      1.46773      .   S
    N0     O118      3.42293      .   S
    Zr119  O120      1.15411      .   S
    N14    O120      2.47921      .   S
    Zr119  O121      1.50636      .   S
    N13    O121      3.53718      .   S
    Zr119  O122      1.47655      .   S
    N3     O122      3.42046  1_545   S
    Zr119  O123      1.17528      .   S
    N1     O123      2.52115      .   S
