# CIF file generated by openbabel 2.4.90, see http://openbabel.sf.net
data_I
_chemical_name_common ''
_cell_length_a 14.019
_cell_length_b 14.615
_cell_length_c 16.671
_cell_angle_alpha 116.044
_cell_angle_beta 88.38
_cell_angle_gamma 90.024
_space_group_name_H-M_alt 'P 1'
_space_group_name_Hall 'P 1'
loop_
    _symmetry_equiv_pos_as_xyz
    x,y,z
loop_
    _atom_site_label
    _atom_site_type_symbol
    _atom_site_fract_x
    _atom_site_fract_y
    _atom_site_fract_z
    _atom_site_occupancy
    H0      H    0.52406   0.66443   0.05091   1.000
    H1      H    0.56571   0.62309   0.89151   1.000
    H2      H    0.57885   0.94329   0.96023   1.000
    H3      H    0.53468   0.98397   0.11964   1.000
    H4      H    0.60650   0.67090   0.77873   1.000
    H5      H    0.54453   0.88582   0.67871   1.000
    H6      H    0.74772   0.67932   0.70275   1.000
    H7      H    0.71197   0.68015   0.44771   1.000
    H8      H    0.97614   0.61298   0.94800   1.000
    H9      H    0.93420   0.73083   0.10806   1.000
    H10     H    0.92116   0.98281   0.04017   1.000
    H11     H    0.96565   0.86429   0.88070   1.000
    H12     H    0.89375   0.89140   0.22117   1.000
    H13     H    0.95212   0.20785   0.32087   1.000
    H14     H    0.75310   0.97391   0.29782   1.000
    H15     H    0.78760   0.23098   0.55258   1.000
    H16     H    0.47599   0.33557   0.94914   1.000
    H17     H    0.43439   0.37692   0.10855   1.000
    H18     H    0.42133   0.05672   0.03985   1.000
    H19     H    0.46545   0.01604   0.88043   1.000
    H20     H    0.39365   0.32911   0.22134   1.000
    H21     H    0.45555   0.11416   0.32136   1.000
    H22     H    0.25243   0.32070   0.29729   1.000
    H23     H    0.28810   0.31986   0.55234   1.000
    H24     H    0.02385   0.38702   0.05144   1.000
    H25     H    0.06578   0.26917   0.89198   1.000
    H26     H    0.07885   0.01719   0.95987   1.000
    H27     H    0.03436   0.13572   0.11930   1.000
    H28     H    0.10624   0.10860   0.77887   1.000
    H29     H    0.04791   0.79215   0.67916   1.000
    H30     H    0.24692   0.02611   0.70225   1.000
    H31     H    0.21244   0.76906   0.44747   1.000
    C32     C    0.52702   0.82634   0.09404   1.000
    C33     C    0.53574   0.72459   0.03003   1.000
    C34     C    0.55904   0.70219   0.94169   1.000
    C35     C    0.57425   0.78088   0.91592   1.000
    C36     C    0.56603   0.88298   0.98070   1.000
    C37     C    0.54219   0.90543   0.06881   1.000
    C38     C    0.59837   0.75343   0.82233   1.000
    C39     C    0.62264   0.78622   0.55701   1.000
    C40     C    0.59711   0.82451   0.64792   1.000
    C41     C    0.63816   0.78248   0.70036   1.000
    C42     C    0.71022   0.70798   0.66198   1.000
    C43     C    0.73776   0.67174   0.57160   1.000
    C44     C    0.69215   0.70891   0.51823   1.000
    C45     C    0.97323   0.73201   0.90588   1.000
    C46     C    0.96442   0.69407   0.96968   1.000
    C47     C    0.94096   0.75991   0.05805   1.000
    C48     C    0.92564   0.86443   0.08405   1.000
    C49     C    0.93402   0.90197   0.01949   1.000
    C50     C    0.95805   0.83642   0.93136   1.000
    C51     C    0.90129   0.93041   0.17764   1.000
    C52     C    0.87526   0.22906   0.44288   1.000
    C53     C    0.90057   0.17657   0.35190   1.000
    C54     C    0.86072   0.08122   0.29970   1.000
    C55     C    0.78988   0.04404   0.33838   1.000
    C56     C    0.76265   0.09787   0.42878   1.000
    C57     C    0.80719   0.18939   0.48198   1.000
    C58     C    0.47307   0.17367   0.90602   1.000
    C59     C    0.46435   0.27542   0.97003   1.000
    C60     C    0.44106   0.29782   0.05837   1.000
    C61     C    0.42589   0.21913   0.08410   1.000
    C62     C    0.43412   0.11703   0.01930   1.000
    C63     C    0.45795   0.09457   0.93126   1.000
    C64     C    0.40178   0.24658   0.17774   1.000
    C65     C    0.37744   0.21377   0.44304   1.000
    C66     C    0.40297   0.17548   0.35214   1.000
    C67     C    0.36196   0.21752   0.29969   1.000
    C68     C    0.28990   0.29202   0.33800   1.000
    C69     C    0.26236   0.32827   0.42838   1.000
    C70     C    0.30793   0.29109   0.48182   1.000
    C71     C    0.02677   0.26799   0.09416   1.000
    C72     C    0.03557   0.30593   0.03036   1.000
    C73     C    0.05903   0.24008   0.94199   1.000
    C74     C    0.07435   0.13557   0.91599   1.000
    C75     C    0.06598   0.09804   0.98055   1.000
    C76     C    0.04196   0.16358   0.06868   1.000
    C77     C    0.09871   0.06959   0.82240   1.000
    C78     C    0.12478   0.77096   0.55716   1.000
    C79     C    0.09946   0.82344   0.64814   1.000
    C80     C    0.13931   0.91879   0.70034   1.000
    C81     C    0.21015   0.95597   0.66168   1.000
    C82     C    0.23738   0.90215   0.57127   1.000
    C83     C    0.19285   0.81063   0.51807   1.000
    N84     N    0.60856   0.81902   0.79040   1.000
    N85     N    0.89026   0.02785   0.20958   1.000
    N86     N    0.39156   0.18098   0.20961   1.000
    N87     N    0.10976   0.97215   0.79046   1.000
loop_
    _geom_bond_atom_site_label_1
    _geom_bond_atom_site_label_2
    _geom_bond_distance
    _geom_bond_site_symmetry_2
    _ccdc_geom_bond_type
    C62    H18       1.08993      .   S
    C62    C61       1.40871      .   S
    C62    C63       1.38667  1_554   S
    C49    H10       1.08922      .   S
    C49    C48       1.40867      .   S
    C49    C50       1.38785  1_554   S
    C33    H0        1.08916      .   S
    C33    C32       1.40156      .   S
    C33    C34       1.39008  1_554   S
    C72    H24       1.08912      .   S
    C72    C71       1.40156      .   S
    C72    C73       1.39014  1_554   S
    C47    C48       1.40745      .   S
    C47    H9        1.09155      .   S
    C47    C46       1.39015  1_554   S
    C60    C61       1.40701      .   S
    C60    H17       1.09152      .   S
    C60    C59       1.39005  1_554   S
    C76    C71       1.40720      .   S
    C76    H27       1.08901      .   S
    C76    C75       1.38783  1_554   S
    C37    C32       1.40715      .   S
    C37    H3        1.08973      .   S
    C37    C36       1.38781  1_554   S
    C48    C51       1.45938      .   S
    C61    C64       1.46030      .   S
    C51    N85       1.29038  1_565   S
    C51    H12       1.10538      .   S
    C64    N86       1.29019      .   S
    C64    H20       1.10535      .   S
    N85    C54       1.40467      .   S
    N86    C67       1.40475      .   S
    H22    C68       1.08738      .   S
    H14    C55       1.08824  1_565   S
    C67    C68       1.40277      .   S
    C67    C66       1.40472      .   S
    C54    C55       1.40291      .   S
    C54    C53       1.40476      .   S
    H13    C53       1.08866      .   S
    H21    C66       1.08859      .   S
    C68    C69       1.40227      .   S
    C55    C56       1.40089      .   S
    C53    C52       1.40104      .   S
    C66    C65       1.40092      .   S
    C69    C70       1.39812      .   S
    C56    C57       1.39804      .   S
    C52    C57       1.40283      .   S
    C65    C70       1.40295      .   S
    H31    C83       1.08801      .   S
    H7     C44       1.08798      .   S
    C70    H23       1.08801      .   S
    C57    H15       1.08801      .   S
    C83    C78       1.40279      .   S
    C83    C82       1.39798      .   S
    C44    C39       1.40295      .   S
    C44    C43       1.39725      .   S
    C39    C40       1.40102      .   S
    C78    C79       1.40105      .   S
    C82    C81       1.40103      .   S
    C43    C42       1.40223      .   S
    C40    H5        1.08858      .   S
    C40    C41       1.40465      .   S
    C79    H29       1.08863      .   S
    C79    C80       1.40472      .   S
    C81    C80       1.40282      .   S
    C81    H30       1.08825  1_565   S
    C42    C41       1.40287      .   S
    C42    H6        1.08822      .   S
    C80    N87       1.40470      .   S
    C41    N84       1.40412      .   S
    H4     C38       1.10536      .   S
    H28    C77       1.10535      .   S
    N84    C38       1.29084      .   S
    N87    C77       1.29038  1_565   S
    C38    C35       1.45954      .   S
    C77    C74       1.45939      .   S
    H19    C63       1.08973      .   S
    H11    C50       1.08966      .   S
    H1     C34       1.09152      .   S
    H25    C73       1.09151      .   S
    C45    C50       1.40721      .   S
    C45    C46       1.40160      .   S
    C58    C63       1.40718      .   S
    C58    C59       1.40157      .   S
    C35    C34       1.40750      .   S
    C35    C36       1.40861      .   S
    C74    C73       1.40744      .   S
    C74    C75       1.40865      .   S
    H8     C46       1.08758      .   S
    H16    C59       1.08917      .   S
    H26    C75       1.08924      .   S
    H2     C36       1.08915      .   S
