# CIF file generated by openbabel 2.4.90, see http://openbabel.sf.net
data_I
_chemical_name_common ''
_cell_length_a 14.019
_cell_length_b 14.615
_cell_length_c 16.671
_cell_angle_alpha 116.044
_cell_angle_beta 88.38
_cell_angle_gamma 90.024
_space_group_name_H-M_alt 'P 1'
_space_group_name_Hall 'P 1'
loop_
    _symmetry_equiv_pos_as_xyz
    x,y,z
loop_
    _atom_site_label
    _atom_site_type_symbol
    _atom_site_fract_x
    _atom_site_fract_y
    _atom_site_fract_z
    _atom_site_occupancy
    C0      C    0.50337   0.85090   0.18895   1.000
    C1      C    0.57666   0.82805   0.50061   1.000
    C2      C    0.81793   0.59583   0.53564   1.000
    C3      C    0.99688   0.66174   0.81091   1.000
    C4      C    0.92006   0.32819   0.49910   1.000
    C5      C    0.68365   0.05699   0.46519   1.000
    C6      C    0.49667   0.14910   0.81110   1.000
    C7      C    0.42339   0.17194   0.49940   1.000
    C8      C    0.18220   0.40421   0.46439   1.000
    C9      C    0.00315   0.33827   0.18913   1.000
    C10     C    0.07999   0.67183   0.50080   1.000
    C11     C    0.31638   0.94303   0.53487   1.000
