# CIF file generated by openbabel 2.4.90, see http://openbabel.sf.net
data_I
_chemical_name_common ''
_cell_length_a 14.019
_cell_length_b 14.615
_cell_length_c 16.671
_cell_angle_alpha 116.044
_cell_angle_beta 88.38
_cell_angle_gamma 90.024
_space_group_name_H-M_alt 'P 1'
_space_group_name_Hall 'P 1'
loop_
    _symmetry_equiv_pos_as_xyz
    x,y,z
loop_
    _atom_site_label
    _atom_site_type_symbol
    _atom_site_fract_x
    _atom_site_fract_y
    _atom_site_fract_z
    _atom_site_occupancy
    N0      N    0.39451   0.22693   0.18499   1.000
    N1      N    0.10602   0.04272   0.81507   1.000
    N2      N    0.60560   0.77308   0.81505   1.000
    N3      N    0.89399   0.95729   0.18494   1.000
    Zr4     Zr   0.99965   0.50001   0.50001   1.000
    O5      O    0.94774   0.30898   0.41399   1.000
    O6      O    0.15402   0.39830   0.40785   1.000
    O7      O    0.84569   0.60172   0.59217   1.000
    O8      O    0.05193   0.69103   0.58602   1.000
    O9      O    0.96959   0.66355   0.26084   1.000
    O10     O    0.03007   0.33647   0.73918   1.000
    Zr11    Zr   0.50002   1.00000   0.50003   1.000
    O12     O    0.34574   0.99133   0.59205   1.000
    O13     O    0.53021   0.90292   0.73915   1.000
    O14     O    0.65430   0.00868   0.40799   1.000
    O15     O    0.46986   0.09708   0.26090   1.000
    O16     O    0.44874   0.10494   0.41407   1.000
    O17     O    0.55132   0.89505   0.58598   1.000
loop_
    _geom_bond_atom_site_label_1
    _geom_bond_atom_site_label_2
    _geom_bond_distance
    _geom_bond_site_symmetry_2
    _ccdc_geom_bond_type
    Zr4    O5        2.63101      .   S
    N3     O5        4.94902  1_565   S
    Zr4    O6        2.65763  1_655   S
    N0     O6        4.75080      .   S
    Zr4    O7        2.65307      .   S
    N2     O7        4.74709      .   S
    Zr4    O8        2.63244  1_655   S
    N1     O8        4.94982  1_545   S
    Zr4    O9        5.50018      .   S
    N3     O9        5.09935      .   S
    Zr4    O10       5.50082  1_655   S
    N1     O10       5.10041      .   S
    Zr11   O12       2.65155      .   S
    N1     O12       4.74604  1_545   S
    Zr11   O13       4.81104      .   S
    N2     O13       2.91645      .   S
    Zr11   O14       2.65154  1_565   S
    N3     O14       4.74617  1_565   S
    Zr11   O15       4.81105  1_565   S
    N0     O15       2.91632      .   S
    Zr11   O16       2.62911  1_565   S
    N0     O16       4.94815      .   S
    Zr11   O17       2.62910      .   S
    N2     O17       4.94821      .   S
