# CIF file generated by openbabel 2.4.90, see http://openbabel.sf.net
data_I
_chemical_name_common ''
_cell_length_a 14.019
_cell_length_b 14.615
_cell_length_c 16.671
_cell_angle_alpha 116.044
_cell_angle_beta 88.38
_cell_angle_gamma 90.024
_space_group_name_H-M_alt 'P 1'
_space_group_name_Hall 'P 1'
loop_
    _symmetry_equiv_pos_as_xyz
    x,y,z
loop_
    _atom_site_label
    _atom_site_type_symbol
    _atom_site_fract_x
    _atom_site_fract_y
    _atom_site_fract_z
    _atom_site_occupancy
    C0      C    0.49051   0.89893   0.37440   1.000
    C1      C    0.00893   0.52407   0.62545   1.000
    C2      C    0.50954   0.10105   0.62565   1.000
    C3      C    0.99118   0.47594   0.37459   1.000
    C4      C    0.52406   0.66443   0.05091   1.000
    C5      C    0.56571   0.62309   0.89151   1.000
    C6      C    0.57885   0.94329   0.96023   1.000
    C7      C    0.53468   0.98397   0.11964   1.000
    C8      C    0.60650   0.67090   0.77873   1.000
    C9      C    0.54453   0.88582   0.67871   1.000
    C10     C    0.74772   0.67932   0.70275   1.000
    C11     C    0.71197   0.68015   0.44771   1.000
    C12     C    0.97614   0.61298   0.94800   1.000
    C13     C    0.93420   0.73083   0.10806   1.000
    C14     C    0.92116   0.98281   0.04017   1.000
    C15     C    0.96565   0.86429   0.88070   1.000
    C16     C    0.89375   0.89140   0.22117   1.000
    C17     C    0.95212   0.20785   0.32087   1.000
    C18     C    0.75310   0.97391   0.29782   1.000
    C19     C    0.78760   0.23098   0.55258   1.000
    C20     C    0.47599   0.33557   0.94914   1.000
    C21     C    0.43439   0.37692   0.10855   1.000
    C22     C    0.42133   0.05672   0.03985   1.000
    C23     C    0.46545   0.01604   0.88043   1.000
    C24     C    0.39365   0.32911   0.22134   1.000
    C25     C    0.45555   0.11416   0.32136   1.000
    C26     C    0.25243   0.32070   0.29729   1.000
    C27     C    0.28810   0.31986   0.55234   1.000
    C28     C    0.02385   0.38702   0.05144   1.000
    C29     C    0.06578   0.26917   0.89198   1.000
    C30     C    0.07885   0.01719   0.95987   1.000
    C31     C    0.03436   0.13572   0.11930   1.000
    C32     C    0.10624   0.10860   0.77887   1.000
    C33     C    0.04791   0.79215   0.67916   1.000
    C34     C    0.24692   0.02611   0.70225   1.000
    C35     C    0.21244   0.76906   0.44747   1.000
    C36     C    0.50337   0.85090   0.18895   1.000
    C37     C    0.52702   0.82634   0.09404   1.000
    C38     C    0.53574   0.72459   0.03003   1.000
    C39     C    0.55904   0.70219   0.94169   1.000
    C40     C    0.57425   0.78088   0.91592   1.000
    C41     C    0.56603   0.88298   0.98070   1.000
    C42     C    0.54219   0.90543   0.06881   1.000
    C43     C    0.59837   0.75343   0.82233   1.000
    C44     C    0.57666   0.82805   0.50061   1.000
    C45     C    0.62264   0.78622   0.55701   1.000
    C46     C    0.59711   0.82451   0.64792   1.000
    C47     C    0.63816   0.78248   0.70036   1.000
    C48     C    0.71022   0.70798   0.66198   1.000
    C49     C    0.73776   0.67174   0.57160   1.000
    C50     C    0.69215   0.70891   0.51823   1.000
    C51     C    0.81793   0.59583   0.53564   1.000
    C52     C    0.99688   0.66174   0.81091   1.000
    C53     C    0.97323   0.73201   0.90588   1.000
    C54     C    0.96442   0.69407   0.96968   1.000
    C55     C    0.94096   0.75991   0.05805   1.000
    C56     C    0.92564   0.86443   0.08405   1.000
    C57     C    0.93402   0.90197   0.01949   1.000
    C58     C    0.95805   0.83642   0.93136   1.000
    C59     C    0.90129   0.93041   0.17764   1.000
    C60     C    0.92006   0.32819   0.49910   1.000
    C61     C    0.87526   0.22906   0.44288   1.000
    C62     C    0.90057   0.17657   0.35190   1.000
    C63     C    0.86072   0.08122   0.29970   1.000
    C64     C    0.78988   0.04404   0.33838   1.000
    C65     C    0.76265   0.09787   0.42878   1.000
    C66     C    0.80719   0.18939   0.48198   1.000
    C67     C    0.68365   0.05699   0.46519   1.000
    C68     C    0.49667   0.14910   0.81110   1.000
    C69     C    0.47307   0.17367   0.90602   1.000
    C70     C    0.46435   0.27542   0.97003   1.000
    C71     C    0.44106   0.29782   0.05837   1.000
    C72     C    0.42589   0.21913   0.08410   1.000
    C73     C    0.43412   0.11703   0.01930   1.000
    C74     C    0.45795   0.09457   0.93126   1.000
    C75     C    0.40178   0.24658   0.17774   1.000
    C76     C    0.42339   0.17194   0.49940   1.000
    C77     C    0.37744   0.21377   0.44304   1.000
    C78     C    0.40297   0.17548   0.35214   1.000
    C79     C    0.36196   0.21752   0.29969   1.000
    C80     C    0.28990   0.29202   0.33800   1.000
    C81     C    0.26236   0.32827   0.42838   1.000
    C82     C    0.30793   0.29109   0.48182   1.000
    C83     C    0.18220   0.40421   0.46439   1.000
    C84     C    0.00315   0.33827   0.18913   1.000
    C85     C    0.02677   0.26799   0.09416   1.000
    C86     C    0.03557   0.30593   0.03036   1.000
    C87     C    0.05903   0.24008   0.94199   1.000
    C88     C    0.07435   0.13557   0.91599   1.000
    C89     C    0.06598   0.09804   0.98055   1.000
    C90     C    0.04196   0.16358   0.06868   1.000
    C91     C    0.09871   0.06959   0.82240   1.000
    C92     C    0.07999   0.67183   0.50080   1.000
    C93     C    0.12478   0.77096   0.55716   1.000
    C94     C    0.09946   0.82344   0.64814   1.000
    C95     C    0.13931   0.91879   0.70034   1.000
    C96     C    0.21015   0.95597   0.66168   1.000
    C97     C    0.23738   0.90215   0.57127   1.000
    C98     C    0.19285   0.81063   0.51807   1.000
    C99     C    0.31638   0.94303   0.53487   1.000
    C100    C    0.60856   0.81902   0.79040   1.000
    C101    C    0.89026   0.02785   0.20958   1.000
    C102    C    0.39156   0.18098   0.20961   1.000
    C103    C    0.10976   0.97215   0.79046   1.000
    C104    C    0.49230   0.77870   0.21279   1.000
    C105    C    0.49644   0.94446   0.24691   1.000
    C106    C    0.57583   0.77622   0.41639   1.000
    C107    C    0.53718   0.91778   0.53872   1.000
    C108    C    0.85626   0.56816   0.59019   1.000
    C109    C    0.84513   0.56335   0.45363   1.000
    C110    C    0.00000   0.56560   0.78690   1.000
    C111    C    0.00386   0.69742   0.75311   1.000
    C112    C    0.92046   0.36113   0.58345   1.000
    C113    C    0.95906   0.37985   0.46090   1.000
    C114    C    0.64500   0.97485   0.41060   1.000
    C115    C    0.65769   0.10579   0.54761   1.000
    C116    C    0.50775   0.22129   0.78726   1.000
    C117    C    0.50362   0.05554   0.75315   1.000
    C118    C    0.42422   0.22377   0.58367   1.000
    C119    C    0.46285   0.08219   0.46134   1.000
    C120    C    0.14394   0.43192   0.40983   1.000
    C121    C    0.15495   0.43665   0.54638   1.000
    C122    C    0.99227   0.43441   0.21315   1.000
    C123    C    0.99618   0.30258   0.24694   1.000
    C124    C    0.07956   0.63892   0.41659   1.000
    C125    C    0.04102   0.62014   0.53910   1.000
    C126    C    0.35504   0.02516   0.58947   1.000
    C127    C    0.34236   0.89422   0.45245   1.000
    O128    O    0.42773   0.08687   0.02957   1.000
    O129    O    0.43001   0.16808   0.05170   1.000
    O130    O    0.44604   0.10580   0.97528   1.000
    O131    O    0.92759   0.94239   0.02983   1.000
    O132    O    0.92983   0.88320   0.05177   1.000
    O133    O    0.94603   0.86919   0.97542   1.000
    O134    O    0.52990   0.69451   0.04047   1.000
    O135    O    0.53138   0.77546   0.06203   1.000
    O136    O    0.54739   0.71339   0.98586   1.000
    O137    O    0.02971   0.34647   0.04090   1.000
    O138    O    0.03117   0.28696   0.06226   1.000
    O139    O    0.04730   0.27301   0.98617   1.000
    O140    O    0.93330   0.81217   0.07105   1.000
    O141    O    0.93758   0.74537   0.08305   1.000
    O142    O    0.95269   0.72699   0.01386   1.000
    O143    O    0.43347   0.25847   0.07123   1.000
    O144    O    0.43772   0.33737   0.08346   1.000
    O145    O    0.45270   0.28662   0.01420   1.000
    O146    O    0.03436   0.21578   0.08142   1.000
    O147    O    0.03816   0.14965   0.09399   1.000
    O148    O    0.05397   0.13081   0.02461   1.000
    O149    O    0.53461   0.86589   0.08142   1.000
    O150    O    0.53843   0.94470   0.09422   1.000
    O151    O    0.55411   0.89420   0.02475   1.000
    O152    O    0.91346   0.89742   0.13084   1.000
    O153    O    0.41383   0.23285   0.13092   1.000
    O154    O    0.51520   0.83862   0.14149   1.000
    O155    O    0.01496   0.30313   0.14164   1.000
    O156    O    0.89577   0.97913   0.19361   1.000
    O157    O    0.89752   0.91091   0.19940   1.000
    O158    O    0.39667   0.21378   0.19367   1.000
    O159    O    0.39772   0.28784   0.19954   1.000
    O160    O    0.49784   0.81480   0.20087   1.000
    O161    O    0.49991   0.89768   0.21793   1.000
    O162    O    0.99771   0.38634   0.20114   1.000
    O163    O    0.99967   0.32042   0.21803   1.000
    O164    O    0.87549   0.05453   0.25464   1.000
    O165    O    0.37676   0.19925   0.25465   1.000
    O166    O    0.49140   0.83882   0.29359   1.000
    O167    O    0.99173   0.45517   0.29387   1.000
    O168    O    0.49347   0.92170   0.31065   1.000
    O169    O    0.99368   0.38926   0.31076   1.000
    O170    O    0.27117   0.30636   0.31764   1.000
    O171    O    0.77149   0.00898   0.31810   1.000
    O172    O    0.32593   0.25477   0.31885   1.000
    O173    O    0.38247   0.19650   0.32591   1.000
    O174    O    0.82530   0.06263   0.31904   1.000
    O175    O    0.88064   0.12889   0.32580   1.000
    O176    O    0.92634   0.19221   0.33638   1.000
    O177    O    0.42926   0.14482   0.33675   1.000
    O178    O    0.27613   0.31015   0.38319   1.000
    O179    O    0.77626   0.07096   0.38358   1.000
    O180    O    0.88791   0.20281   0.39739   1.000
    O181    O    0.39021   0.19462   0.39759   1.000
    O182    O    0.56776   0.93689   0.39250   1.000
    O183    O    0.53317   0.83757   0.39539   1.000
    O184    O    0.41643   0.89658   0.41342   1.000
    O185    O    0.47668   0.99056   0.41787   1.000
    O186    O    0.06756   0.45393   0.39221   1.000
    O187    O    0.03537   0.55743   0.39559   1.000
    O188    O    0.91816   0.51964   0.41411   1.000
    O189    O    0.97512   0.42789   0.41774   1.000
    O190    O    0.16307   0.41806   0.43711   1.000
    O191    O    0.66433   0.01592   0.43789   1.000
    O192    O    0.57624   0.80213   0.45850   1.000
    O193    O    0.07978   0.65538   0.45869   1.000
    O194    O    0.22228   0.36624   0.44638   1.000
    O195    O    0.28514   0.30968   0.45510   1.000
    O196    O    0.72315   0.07743   0.44698   1.000
    O197    O    0.78492   0.14363   0.45538   1.000
    O198    O    0.84122   0.20923   0.46243   1.000
    O199    O    0.89766   0.27863   0.47099   1.000
    O200    O    0.34268   0.25243   0.46243   1.000
    O201    O    0.40041   0.19285   0.47122   1.000
    O202    O    0.20265   0.78984   0.48277   1.000
    O203    O    0.70206   0.69453   0.48297   1.000
    O204    O    0.32937   0.91862   0.49366   1.000
    O205    O    0.83153   0.57959   0.49463   1.000
    O206    O    0.93956   0.35402   0.48000   1.000
    O207    O    0.44312   0.12707   0.48037   1.000
    O208    O    0.16857   0.42043   0.50538   1.000
    O209    O    0.67067   0.08139   0.50640   1.000
    O210    O    0.29802   0.30547   0.51708   1.000
    O211    O    0.79739   0.21019   0.51728   1.000
    O212    O    0.92026   0.34466   0.54127   1.000
    O213    O    0.42380   0.19785   0.54153   1.000
    O214    O    0.55692   0.87291   0.51966   1.000
    O215    O    0.59965   0.80714   0.52881   1.000
    O216    O    0.06050   0.64598   0.51995   1.000
    O217    O    0.10238   0.72139   0.52898   1.000
    O218    O    0.15881   0.79080   0.53761   1.000
    O219    O    0.21512   0.85639   0.54467   1.000
    O220    O    0.65740   0.74757   0.53762   1.000
    O221    O    0.71496   0.69033   0.54491   1.000
    O222    O    0.27688   0.92259   0.55307   1.000
    O223    O    0.33571   0.98409   0.56217   1.000
    O224    O    0.77784   0.63379   0.55362   1.000
    O225    O    0.83710   0.58200   0.56291   1.000
    O226    O    0.52336   0.00942   0.58218   1.000
    O227    O    0.02497   0.57210   0.58227   1.000
    O228    O    0.08194   0.48036   0.58591   1.000
    O229    O    0.58361   0.10342   0.58663   1.000
    O230    O    0.60988   0.80537   0.60246   1.000
    O231    O    0.11212   0.79720   0.60265   1.000
    O232    O    0.22377   0.92906   0.61647   1.000
    O233    O    0.72399   0.68986   0.61679   1.000
    O234    O    0.96470   0.44260   0.60445   1.000
    O235    O    0.46688   0.16241   0.60466   1.000
    O236    O    0.43229   0.06311   0.60756   1.000
    O237    O    0.93260   0.54611   0.60782   1.000
    O238    O    0.00640   0.61075   0.68928   1.000
    O239    O    0.00446   0.54483   0.70617   1.000
    O240    O    0.50658   0.07830   0.68940   1.000
    O241    O    0.50865   0.16117   0.70645   1.000
    O242    O    0.57082   0.85516   0.66331   1.000
    O243    O    0.61764   0.80349   0.67414   1.000
    O244    O    0.07368   0.80780   0.66365   1.000
    O245    O    0.11938   0.87111   0.67424   1.000
    O246    O    0.17473   0.93738   0.68101   1.000
    O247    O    0.22853   0.99104   0.68196   1.000
    O248    O    0.67419   0.74523   0.68117   1.000
    O249    O    0.72897   0.69365   0.68236   1.000
    O250    O    0.12453   0.94547   0.74540   1.000
    O251    O    0.62336   0.80075   0.74538   1.000
    O252    O    0.00037   0.67958   0.78201   1.000
    O253    O    0.50015   0.10232   0.78212   1.000
    O254    O    0.60244   0.71216   0.80053   1.000
    O255    O    0.10248   0.08909   0.80063   1.000
    O256    O    0.99844   0.61367   0.79890   1.000
    O257    O    0.50221   0.18520   0.79918   1.000
    O258    O    0.60347   0.78622   0.80636   1.000
    O259    O    0.10423   0.02087   0.80643   1.000
    O260    O    0.98506   0.69688   0.85839   1.000
    O261    O    0.48487   0.16138   0.85856   1.000
    O262    O    0.58631   0.76715   0.86912   1.000
    O263    O    0.08653   0.10258   0.86919   1.000
    O264    O    0.46170   0.05530   0.90584   1.000
    O265    O    0.96185   0.85036   0.90603   1.000
    O266    O    0.56238   0.66264   0.91660   1.000
    O267    O    0.06240   0.25463   0.91698   1.000
    O268    O    0.96564   0.78422   0.91862   1.000
    O269    O    0.96883   0.71304   0.93778   1.000
    O270    O    0.46551   0.13412   0.91864   1.000
    O271    O    0.46871   0.22454   0.93802   1.000
    O272    O    0.56665   0.74153   0.92880   1.000
    O273    O    0.57014   0.83193   0.94831   1.000
    O274    O    0.06669   0.18783   0.92899   1.000
    O275    O    0.07017   0.11680   0.94827   1.000
    O276    O    0.97028   0.65353   0.95884   1.000
    O277    O    0.47017   0.30549   0.95958   1.000
    O278    O    0.07242   0.05761   0.97021   1.000
    O279    O    0.57244   0.91313   0.97046   1.000
    O280    O    0.51384   0.90836   0.45656   1.000
    O281    O    0.98400   0.45196   0.54317   1.000
    O282    O    0.48619   0.09162   0.54350   1.000
    O283    O    0.01610   0.54804   0.45684   1.000
loop_
    _geom_bond_atom_site_label_1
    _geom_bond_atom_site_label_2
    _geom_bond_distance
    _geom_bond_site_symmetry_2
    _ccdc_geom_bond_type
    C73    O128      0.54496      .   S
    C22    O128      0.54496      .   S
    C73    O129      0.70436      .   S
    C72    O129      0.70436      .   S
    C73    O130      0.69334  1_554   S
    C74    O130      0.69334      .   S
    C57    O131      0.54461      .   S
    C14    O131      0.54461      .   S
    C57    O132      0.70434      .   S
    C56    O132      0.70434      .   S
    C57    O133      0.69392  1_554   S
    C58    O133      0.69392      .   S
    C38    O134      0.54458      .   S
    C4     O134      0.54458      .   S
    C38    O135      0.70078      .   S
    C37    O135      0.70078      .   S
    C38    O136      0.69504  1_554   S
    C39    O136      0.69504      .   S
    C86    O137      0.54456      .   S
    C28    O137      0.54456      .   S
    C86    O138      0.70078      .   S
    C85    O138      0.70078      .   S
    C86    O139      0.69507  1_554   S
    C87    O139      0.69507      .   S
    C55    O140      0.70373      .   S
    C56    O140      0.70373      .   S
    C55    O141      0.54578      .   S
    C13    O141      0.54578      .   S
    C55    O142      0.69507      .   S
    C54    O142      0.69507  1_556   S
    C71    O143      0.70350      .   S
    C72    O143      0.70350      .   S
    C71    O144      0.54576      .   S
    C21    O144      0.54576      .   S
    C71    O145      0.69502      .   S
    C70    O145      0.69502  1_556   S
    C90    O146      0.70360      .   S
    C85    O146      0.70360      .   S
    C90    O147      0.54450      .   S
    C31    O147      0.54450      .   S
    C90    O148      0.69392      .   S
    C89    O148      0.69392  1_556   S
    C42    O149      0.70358      .   S
    C37    O149      0.70358      .   S
    C42    O150      0.54486      .   S
    C7     O150      0.54486      .   S
    C42    O151      0.69391      .   S
    C41    O151      0.69391  1_556   S
    C56    O152      0.72969      .   S
    C59    O152      0.72969      .   S
    C72    O153      0.73015      .   S
    C75    O153      0.73015      .   S
    C37    O154      0.74397      .   S
    C36    O154      0.74397      .   S
    C85    O155      0.74397      .   S
    C84    O155      0.74397      .   S
    C59    O156      0.64519      .   S
    C101   O156      0.64519  1_545   S
    C59    O157      0.55269      .   S
    C16    O157      0.55269      .   S
    C75    O158      0.64510      .   S
    C102   O158      0.64510      .   S
    C75    O159      0.55268      .   S
    C24    O159      0.55268      .   S
    C36    O160      0.64422      .   S
    C104   O160      0.64422      .   S
    C36    O161      0.64174      .   S
    C105   O161      0.64174      .   S
    C84    O162      0.64433  1_455   S
    C122   O162      0.64433      .   S
    C84    O163      0.64155  1_455   S
    C123   O163      0.64155      .   S
    C101   O164      0.70233      .   S
    C63    O164      0.70233      .   S
    C102   O165      0.70237      .   S
    C79    O165      0.70237      .   S
    C104   O166      1.24358      .   S
    C0     O166      1.24358      .   S
    C122   O167      1.24252      .   S
    C3     O167      1.24252      .   S
    C105   O168      1.24485      .   S
    C0     O168      1.24485      .   S
    C123   O169      1.24597      .   S
    C3     O169      1.24597      .   S
    C26    O170      0.54369      .   S
    C80    O170      0.54369      .   S
    C18    O171      0.54412  1_565   S
    C64    O171      0.54412      .   S
    C79    O172      0.70138      .   S
    C80    O172      0.70138      .   S
    C79    O173      0.70236      .   S
    C78    O173      0.70236      .   S
    C63    O174      0.70146      .   S
    C64    O174      0.70146      .   S
    C63    O175      0.70238      .   S
    C62    O175      0.70238      .   S
    C17    O176      0.54433      .   S
    C62    O176      0.54433      .   S
    C25    O177      0.54429      .   S
    C78    O177      0.54429      .   S
    C80    O178      0.70113      .   S
    C81    O178      0.70113      .   S
    C64    O179      0.70045      .   S
    C65    O179      0.70045      .   S
    C62    O180      0.70052      .   S
    C61    O180      0.70052      .   S
    C78    O181      0.70046      .   S
    C77    O181      0.70046      .   S
    C0     O182      1.20107      .   S
    C114   O182      1.20107      .   S
    C0     O183      1.25388      .   S
    C106   O183      1.25388      .   S
    C0     O184      1.21830      .   S
    C127   O184      1.21830      .   S
    C0     O185      1.22319      .   S
    C119   O185      1.22319  1_545   S
    C3     O186      1.19885  1_655   S
    C120   O186      1.19885      .   S
    C3     O187      1.25315  1_655   S
    C124   O187      1.25315      .   S
    C3     O188      1.21778      .   S
    C109   O188      1.21778      .   S
    C3     O189      1.22292      .   S
    C113   O189      1.22292      .   S
    C120   O190      0.63843      .   S
    C83    O190      0.63843      .   S
    C114   O191      0.63853  1_565   S
    C67    O191      0.63853      .   S
    C106   O192      0.63487      .   S
    C44    O192      0.63487      .   S
    C124   O193      0.63438      .   S
    C92    O193      0.63438      .   S
    C81    O194      0.74709      .   S
    C83    O194      0.74709      .   S
    C81    O195      0.69906      .   S
    C82    O195      0.69906      .   S
    C65    O196      0.74694      .   S
    C67    O196      0.74694      .   S
    C65    O197      0.69902      .   S
    C66    O197      0.69902      .   S
    C61    O198      0.70141      .   S
    C66    O198      0.70141      .   S
    C61    O199      0.74364      .   S
    C60    O199      0.74364      .   S
    C77    O200      0.70148      .   S
    C82    O200      0.70148      .   S
    C77    O201      0.74338      .   S
    C76    O201      0.74338      .   S
    C35    O202      0.54401      .   S
    C98    O202      0.54401      .   S
    C11    O203      0.54399      .   S
    C50    O203      0.54399      .   S
    C127   O204      0.64043      .   S
    C99    O204      0.64043      .   S
    C109   O205      0.64046      .   S
    C51    O205      0.64046      .   S
    C113   O206      0.64746      .   S
    C60    O206      0.64746      .   S
    C119   O207      0.64788      .   S
    C76    O207      0.64788      .   S
    C83    O208      0.64044      .   S
    C121   O208      0.64044      .   S
    C67    O209      0.64041      .   S
    C115   O209      0.64041      .   S
    C82    O210      0.54400      .   S
    C27    O210      0.54400      .   S
    C66    O211      0.54401      .   S
    C19    O211      0.54401      .   S
    C60    O212      0.63545      .   S
    C112   O212      0.63545      .   S
    C76    O213      0.63522      .   S
    C118   O213      0.63522      .   S
    C44    O214      0.64789      .   S
    C107   O214      0.64789      .   S
    C44    O215      0.74369      .   S
    C45    O215      0.74369      .   S
    C92    O216      0.64816      .   S
    C125   O216      0.64816      .   S
    C92    O217      0.74385      .   S
    C93    O217      0.74385      .   S
    C98    O218      0.70139      .   S
    C93    O218      0.70139      .   S
    C98    O219      0.69899      .   S
    C97    O219      0.69899      .   S
    C50    O220      0.70148      .   S
    C45    O220      0.70148      .   S
    C50    O221      0.69863      .   S
    C49    O221      0.69863      .   S
    C99    O222      0.74690      .   S
    C97    O222      0.74690      .   S
    C99    O223      0.63854      .   S
    C126   O223      0.63854  1_545   S
    C51    O224      0.74708      .   S
    C49    O224      0.74708      .   S
    C51    O225      0.63837      .   S
    C108   O225      0.63837      .   S
    C107   O226      1.22323  1_565   S
    C2     O226      1.22323      .   S
    C125   O227      1.22308      .   S
    C1     O227      1.22308      .   S
    C121   O228      1.21767      .   S
    C1     O228      1.21767      .   S
    C115   O229      1.21830      .   S
    C2     O229      1.21830      .   S
    C45    O230      0.70051      .   S
    C46    O230      0.70051      .   S
    C93    O231      0.70052      .   S
    C94    O231      0.70052      .   S
    C97    O232      0.70052      .   S
    C96    O232      0.70052      .   S
    C49    O233      0.70112      .   S
    C48    O233      0.70112      .   S
    C112   O234      1.25318      .   S
    C1     O234      1.25318  1_455   S
    C118   O235      1.25382      .   S
    C2     O235      1.25382      .   S
    C126   O236      1.20104      .   S
    C2     O236      1.20104      .   S
    C108   O237      1.19857      .   S
    C1     O237      1.19857  1_455   S
    C1     O238      1.24602      .   S
    C111   O238      1.24602      .   S
    C1     O239      1.24246      .   S
    C110   O239      1.24246      .   S
    C2     O240      1.24488      .   S
    C117   O240      1.24488      .   S
    C2     O241      1.24360      .   S
    C116   O241      1.24360      .   S
    C46    O242      0.54429      .   S
    C9     O242      0.54429      .   S
    C46    O243      0.70232      .   S
    C47    O243      0.70232      .   S
    C94    O244      0.54432      .   S
    C33    O244      0.54432      .   S
    C94    O245      0.70236      .   S
    C95    O245      0.70236      .   S
    C96    O246      0.70141      .   S
    C95    O246      0.70141      .   S
    C96    O247      0.54412      .   S
    C34    O247      0.54412  1_545   S
    C48    O248      0.70144      .   S
    C47    O248      0.70144      .   S
    C48    O249      0.54411      .   S
    C10    O249      0.54411      .   S
    C95    O250      0.70235      .   S
    C103   O250      0.70235      .   S
    C47    O251      0.70206      .   S
    C100   O251      0.70206      .   S
    C111   O252      0.64148      .   S
    C52    O252      0.64148  1_655   S
    C117   O253      0.64174      .   S
    C68    O253      0.64174      .   S
    C8     O254      0.55268      .   S
    C43    O254      0.55268      .   S
    C32    O255      0.55268      .   S
    C91    O255      0.55268      .   S
    C110   O256      0.64062  1_455   S
    C52    O256      0.64062      .   S
    C116   O257      0.64421      .   S
    C68    O257      0.64421      .   S
    C100   O258      0.64542      .   S
    C43    O258      0.64542      .   S
    C103   O259      0.64519  1_565   S
    C91    O259      0.64519      .   S
    C52    O260      0.74399      .   S
    C53    O260      0.74399      .   S
    C68    O261      0.74397      .   S
    C69    O261      0.74397      .   S
    C43    O262      0.72977      .   S
    C40    O262      0.72977      .   S
    C91    O263      0.72970      .   S
    C88    O263      0.72970      .   S
    C23    O264      0.54486      .   S
    C74    O264      0.54486      .   S
    C15    O265      0.54483      .   S
    C58    O265      0.54483      .   S
    C5     O266      0.54576      .   S
    C39    O266      0.54576      .   S
    C29    O267      0.54576      .   S
    C87    O267      0.54576      .   S
    C53    O268      0.70361      .   S
    C58    O268      0.70361      .   S
    C53    O269      0.70080      .   S
    C54    O269      0.70080      .   S
    C69    O270      0.70359      .   S
    C74    O270      0.70359      .   S
    C69    O271      0.70079      .   S
    C70    O271      0.70079      .   S
    C40    O272      0.70375      .   S
    C39    O272      0.70375      .   S
    C40    O273      0.70430      .   S
    C41    O273      0.70430      .   S
    C88    O274      0.70372      .   S
    C87    O274      0.70372      .   S
    C88    O275      0.70432      .   S
    C89    O275      0.70432      .   S
    C12    O276      0.54379      .   S
    C54    O276      0.54379      .   S
    C20    O277      0.54459      .   S
    C70    O277      0.54459      .   S
    C30    O278      0.54462      .   S
    C89    O278      0.54462      .   S
    C6     O279      0.54457      .   S
    C41    O279      0.54457      .   S
    C107   O280      1.36443      .   S
    C0     O280      1.36443      .   S
    C113   O281      1.36805      .   S
    C1     O281      1.36805  1_455   S
    C119   O282      1.36436      .   S
    C2     O282      1.36436      .   S
    C125   O283      1.36773      .   S
    C3     O283      1.36773  1_655   S
