# CIF file generated by openbabel 2.4.90, see http://openbabel.sf.net
data_I
_chemical_name_common ''
_cell_length_a 14.019
_cell_length_b 14.615
_cell_length_c 16.671
_cell_angle_alpha 116.044
_cell_angle_beta 88.38
_cell_angle_gamma 90.024
_space_group_name_H-M_alt 'P 1'
_space_group_name_Hall 'P 1'
loop_
    _symmetry_equiv_pos_as_xyz
    x,y,z
loop_
    _atom_site_label
    _atom_site_type_symbol
    _atom_site_fract_x
    _atom_site_fract_y
    _atom_site_fract_z
    _atom_site_occupancy
    Zr0     Zr   0.49051   0.89893   0.37440   1.000
    Zr1     Zr   0.00893   0.52407   0.62545   1.000
    Zr2     Zr   0.50954   0.10105   0.62565   1.000
    Zr3     Zr   0.99118   0.47594   0.37459   1.000
    Zr4     Zr   0.50337   0.85090   0.18895   1.000
    Zr5     Zr   0.57666   0.82805   0.50061   1.000
    Zr6     Zr   0.81793   0.59583   0.53564   1.000
    Zr7     Zr   0.99688   0.66174   0.81091   1.000
    Zr8     Zr   0.92006   0.32819   0.49910   1.000
    Zr9     Zr   0.68365   0.05699   0.46519   1.000
    Zr10    Zr   0.49667   0.14910   0.81110   1.000
    Zr11    Zr   0.42339   0.17194   0.49940   1.000
    Zr12    Zr   0.18220   0.40421   0.46439   1.000
    Zr13    Zr   0.00315   0.33827   0.18913   1.000
    Zr14    Zr   0.07999   0.67183   0.50080   1.000
    Zr15    Zr   0.31638   0.94303   0.53487   1.000
    Zr16    Zr   0.49230   0.77870   0.21279   1.000
    Zr17    Zr   0.49644   0.94446   0.24691   1.000
    Zr18    Zr   0.57583   0.77622   0.41639   1.000
    Zr19    Zr   0.53718   0.91778   0.53872   1.000
    Zr20    Zr   0.85626   0.56816   0.59019   1.000
    Zr21    Zr   0.84513   0.56335   0.45363   1.000
    Zr22    Zr   0.00000   0.56560   0.78690   1.000
    Zr23    Zr   0.00386   0.69742   0.75311   1.000
    Zr24    Zr   0.92046   0.36113   0.58345   1.000
    Zr25    Zr   0.95906   0.37985   0.46090   1.000
    Zr26    Zr   0.64500   0.97485   0.41060   1.000
    Zr27    Zr   0.65769   0.10579   0.54761   1.000
    Zr28    Zr   0.50775   0.22129   0.78726   1.000
    Zr29    Zr   0.50362   0.05554   0.75315   1.000
    Zr30    Zr   0.42422   0.22377   0.58367   1.000
    Zr31    Zr   0.46285   0.08219   0.46134   1.000
    Zr32    Zr   0.14394   0.43192   0.40983   1.000
    Zr33    Zr   0.15495   0.43665   0.54638   1.000
    Zr34    Zr   0.99227   0.43441   0.21315   1.000
    Zr35    Zr   0.99618   0.30258   0.24694   1.000
    Zr36    Zr   0.07956   0.63892   0.41659   1.000
    Zr37    Zr   0.04102   0.62014   0.53910   1.000
    Zr38    Zr   0.35504   0.02516   0.58947   1.000
    Zr39    Zr   0.34236   0.89422   0.45245   1.000
    O40     O    0.49784   0.81480   0.20087   1.000
    O41     O    0.49991   0.89768   0.21793   1.000
    O42     O    0.99771   0.38634   0.20114   1.000
    O43     O    0.99967   0.32042   0.21803   1.000
    O44     O    0.49140   0.83882   0.29359   1.000
    O45     O    0.99173   0.45517   0.29387   1.000
    O46     O    0.49347   0.92170   0.31065   1.000
    O47     O    0.99368   0.38926   0.31076   1.000
    O48     O    0.56776   0.93689   0.39250   1.000
    O49     O    0.53317   0.83757   0.39539   1.000
    O50     O    0.41643   0.89658   0.41342   1.000
    O51     O    0.47668   0.99056   0.41787   1.000
    O52     O    0.06756   0.45393   0.39221   1.000
    O53     O    0.03537   0.55743   0.39559   1.000
    O54     O    0.91816   0.51964   0.41411   1.000
    O55     O    0.97512   0.42789   0.41774   1.000
    O56     O    0.16307   0.41806   0.43711   1.000
    O57     O    0.66433   0.01592   0.43789   1.000
    O58     O    0.57624   0.80213   0.45850   1.000
    O59     O    0.07978   0.65538   0.45869   1.000
    O60     O    0.32937   0.91862   0.49366   1.000
    O61     O    0.83153   0.57959   0.49463   1.000
    O62     O    0.93956   0.35402   0.48000   1.000
    O63     O    0.44312   0.12707   0.48037   1.000
    O64     O    0.16857   0.42043   0.50538   1.000
    O65     O    0.67067   0.08139   0.50640   1.000
    O66     O    0.92026   0.34466   0.54127   1.000
    O67     O    0.42380   0.19785   0.54153   1.000
    O68     O    0.55692   0.87291   0.51966   1.000
    O69     O    0.06050   0.64598   0.51995   1.000
    O70     O    0.33571   0.98409   0.56217   1.000
    O71     O    0.83710   0.58200   0.56291   1.000
    O72     O    0.52336   0.00942   0.58218   1.000
    O73     O    0.02497   0.57210   0.58227   1.000
    O74     O    0.08194   0.48036   0.58591   1.000
    O75     O    0.58361   0.10342   0.58663   1.000
    O76     O    0.96470   0.44260   0.60445   1.000
    O77     O    0.46688   0.16241   0.60466   1.000
    O78     O    0.43229   0.06311   0.60756   1.000
    O79     O    0.93260   0.54611   0.60782   1.000
    O80     O    0.00640   0.61075   0.68928   1.000
    O81     O    0.00446   0.54483   0.70617   1.000
    O82     O    0.50658   0.07830   0.68940   1.000
    O83     O    0.50865   0.16117   0.70645   1.000
    O84     O    0.00037   0.67958   0.78201   1.000
    O85     O    0.50015   0.10232   0.78212   1.000
    O86     O    0.99844   0.61367   0.79890   1.000
    O87     O    0.50221   0.18520   0.79918   1.000
    O88     O    0.51384   0.90836   0.45656   1.000
    O89     O    0.98400   0.45196   0.54317   1.000
    O90     O    0.48619   0.09162   0.54350   1.000
    O91     O    0.01610   0.54804   0.45684   1.000
    N92     N    0.39451   0.22693   0.18499   1.000
    O93     O    0.43969   0.19415   0.02178   1.000
    O94     O    0.39746   0.20989   0.32811   1.000
    O95     O    0.30840   0.29658   0.31569   1.000
    N96     N    0.10602   0.04272   0.81507   1.000
    O97     O    0.06049   0.17292   0.97836   1.000
    O98     O    0.19145   0.98266   0.68407   1.000
    O99     O    0.10420   0.88206   0.67203   1.000
    N100    N    0.60560   0.77308   0.81505   1.000
    O101    O    0.56040   0.80585   0.97827   1.000
    O102    O    0.60263   0.79011   0.67193   1.000
    O103    O    0.69172   0.70343   0.68434   1.000
    N104    N    0.89399   0.95729   0.18494   1.000
    O105    O    0.80857   0.01736   0.31596   1.000
    O106    O    0.89583   0.11796   0.32797   1.000
    O107    O    0.93952   0.82708   0.02167   1.000
loop_
    _geom_bond_atom_site_label_1
    _geom_bond_atom_site_label_2
    _geom_bond_distance
    _geom_bond_site_symmetry_2
    _ccdc_geom_bond_type
    Zr4    O40       0.64422      .   S
    Zr16   O40       0.64422      .   S
    Zr4    O41       0.64174      .   S
    Zr17   O41       0.64174      .   S
    Zr13   O42       0.64433  1_455   S
    Zr34   O42       0.64433      .   S
    Zr13   O43       0.64155  1_455   S
    Zr35   O43       0.64155      .   S
    Zr16   O44       1.24358      .   S
    Zr0    O44       1.24358      .   S
    Zr34   O45       1.24252      .   S
    Zr3    O45       1.24252      .   S
    Zr17   O46       1.24485      .   S
    Zr0    O46       1.24485      .   S
    Zr35   O47       1.24597      .   S
    Zr3    O47       1.24597      .   S
    Zr0    O48       1.20107      .   S
    Zr26   O48       1.20107      .   S
    Zr0    O49       1.25388      .   S
    Zr18   O49       1.25388      .   S
    Zr0    O50       1.21830      .   S
    Zr39   O50       1.21830      .   S
    Zr0    O51       1.22319      .   S
    Zr31   O51       1.22319  1_545   S
    Zr3    O52       1.19885  1_655   S
    Zr32   O52       1.19885      .   S
    Zr3    O53       1.25315  1_655   S
    Zr36   O53       1.25315      .   S
    Zr3    O54       1.21778      .   S
    Zr21   O54       1.21778      .   S
    Zr3    O55       1.22292      .   S
    Zr25   O55       1.22292      .   S
    Zr32   O56       0.63843      .   S
    Zr12   O56       0.63843      .   S
    Zr26   O57       0.63853  1_565   S
    Zr9    O57       0.63853      .   S
    Zr18   O58       0.63487      .   S
    Zr5    O58       0.63487      .   S
    Zr36   O59       0.63438      .   S
    Zr14   O59       0.63438      .   S
    Zr39   O60       0.64043      .   S
    Zr15   O60       0.64043      .   S
    Zr21   O61       0.64046      .   S
    Zr6    O61       0.64046      .   S
    Zr25   O62       0.64746      .   S
    Zr8    O62       0.64746      .   S
    Zr31   O63       0.64788      .   S
    Zr11   O63       0.64788      .   S
    Zr12   O64       0.64044      .   S
    Zr33   O64       0.64044      .   S
    Zr9    O65       0.64041      .   S
    Zr27   O65       0.64041      .   S
    Zr8    O66       0.63545      .   S
    Zr24   O66       0.63545      .   S
    Zr11   O67       0.63522      .   S
    Zr30   O67       0.63522      .   S
    Zr5    O68       0.64789      .   S
    Zr19   O68       0.64789      .   S
    Zr14   O69       0.64816      .   S
    Zr37   O69       0.64816      .   S
    Zr15   O70       0.63854      .   S
    Zr38   O70       0.63854  1_545   S
    Zr6    O71       0.63837      .   S
    Zr20   O71       0.63837      .   S
    Zr19   O72       1.22323  1_565   S
    Zr2    O72       1.22323      .   S
    Zr37   O73       1.22308      .   S
    Zr1    O73       1.22308      .   S
    Zr33   O74       1.21767      .   S
    Zr1    O74       1.21767      .   S
    Zr27   O75       1.21830      .   S
    Zr2    O75       1.21830      .   S
    Zr24   O76       1.25318      .   S
    Zr1    O76       1.25318  1_455   S
    Zr30   O77       1.25382      .   S
    Zr2    O77       1.25382      .   S
    Zr38   O78       1.20104      .   S
    Zr2    O78       1.20104      .   S
    Zr20   O79       1.19857      .   S
    Zr1    O79       1.19857  1_455   S
    Zr1    O80       1.24602      .   S
    Zr23   O80       1.24602      .   S
    Zr1    O81       1.24246      .   S
    Zr22   O81       1.24246      .   S
    Zr2    O82       1.24488      .   S
    Zr29   O82       1.24488      .   S
    Zr2    O83       1.24360      .   S
    Zr28   O83       1.24360      .   S
    Zr23   O84       0.64148      .   S
    Zr7    O84       0.64148  1_655   S
    Zr29   O85       0.64174      .   S
    Zr10   O85       0.64174      .   S
    Zr22   O86       0.64062  1_455   S
    Zr7    O86       0.64062      .   S
    Zr28   O87       0.64421      .   S
    Zr10   O87       0.64421      .   S
    Zr19   O88       1.36443      .   S
    Zr0    O88       1.36443      .   S
    Zr25   O89       1.36805      .   S
    Zr1    O89       1.36805  1_455   S
    Zr31   O90       1.36436      .   S
    Zr2    O90       1.36436      .   S
    Zr37   O91       1.36773      .   S
    Zr3    O91       1.36773  1_655   S
    N92    O93       2.60627      .   S
    Zr10   O93       3.34932  1_556   S
    N92    O94       2.50665      .   S
    Zr11   O94       3.16926      .   S
    N92    O95       2.26842      .   S
    Zr12   O95       2.84246      .   S
    N96    O97       2.60627      .   S
    Zr13   O97       3.34932  1_554   S
    N96    O98       2.26805  1_545   S
    Zr15   O98       2.84241      .   S
    N96    O99       2.50747  1_545   S
    Zr14   O99       3.17112      .   S
    N100   O101      2.60641      .   S
    Zr4    O101      3.34946  1_554   S
    N100   O102      2.50675      .   S
    Zr5    O102      3.16970      .   S
    N100   O103      2.26871      .   S
    Zr6    O103      2.84249      .   S
    N104   O105      2.26823  1_565   S
    Zr9    O105      2.84260      .   S
    N104   O106      2.50733  1_565   S
    Zr8    O106      3.17049      .   S
    N104   O107      2.60613      .   S
    Zr7    O107      3.34920  1_556   S
