# CIF file generated by openbabel 2.4.90, see http://openbabel.sf.net
data_I
_chemical_name_common 'VESTA_phase_1'
_cell_length_a 23.037
_cell_length_b 15.262
_cell_length_c 18.164
_cell_angle_alpha 89.982
_cell_angle_beta 90
_cell_angle_gamma 89.902
_space_group_name_H-M_alt 'P 1'
_space_group_name_Hall 'P 1'
loop_
    _symmetry_equiv_pos_as_xyz
    x,y,z
loop_
    _atom_site_label
    _atom_site_type_symbol
    _atom_site_fract_x
    _atom_site_fract_y
    _atom_site_fract_z
    _atom_site_occupancy
    Zn0     Zn   0.25001   0.55192   0.09709   1.000
    Zn1     Zn   0.75002   0.55192   0.09709   1.000
    Zn2     Zn   0.25000   0.44805   0.90280   1.000
    Zn3     Zn   0.75001   0.44805   0.90280   1.000
    Zn4     Zn   0.25001   0.94801   0.59705   1.000
    Zn5     Zn   0.75001   0.94801   0.59705   1.000
    Zn6     Zn   0.25000   0.05196   0.40290   1.000
    Zn7     Zn   0.75001   0.05196   0.40290   1.000
    H8      H    0.34891   0.67773   0.04775   1.000
    H9      H    0.84892   0.67773   0.04775   1.000
    H10     H    0.45621   0.68597   0.04826   1.000
    H11     H    0.95622   0.68597   0.04826   1.000
    H12     H    0.45704   0.42644   0.14515   1.000
    H13     H    0.95705   0.42644   0.14515   1.000
    H14     H    0.34986   0.43065   0.14027   1.000
    H15     H    0.84986   0.43065   0.14027   1.000
    H16     H    0.34921   0.32222   0.95227   1.000
    H17     H    0.84922   0.32222   0.95227   1.000
    H18     H    0.45653   0.31401   0.95176   1.000
    H19     H    0.95654   0.31401   0.95176   1.000
    H20     H    0.45674   0.57349   0.85477   1.000
    H21     H    0.95675   0.57349   0.85477   1.000
    H22     H    0.34957   0.56924   0.85963   1.000
    H23     H    0.84958   0.56924   0.85963   1.000
    H24     H    0.15109   0.82221   0.54768   1.000
    H25     H    0.65111   0.82221   0.54768   1.000
    H26     H    0.04380   0.81396   0.54822   1.000
    H27     H    0.54381   0.81396   0.54822   1.000
    H28     H    0.04297   0.07343   0.64514   1.000
    H29     H    0.54298   0.07343   0.64514   1.000
    H30     H    0.15016   0.06923   0.64024   1.000
    H31     H    0.65017   0.06923   0.64024   1.000
    H32     H    0.15079   0.17779   0.45234   1.000
    H33     H    0.65080   0.17779   0.45234   1.000
    H34     H    0.04347   0.18601   0.45100   1.000
    H35     H    0.54348   0.18601   0.45100   1.000
    H36     H    0.04328   0.92659   0.35478   1.000
    H37     H    0.54329   0.92659   0.35478   1.000
    H38     H    0.15045   0.93083   0.35960   1.000
    H39     H    0.65046   0.93083   0.35967   1.000
    H40     H    0.15110   0.32225   0.95222   1.000
    H41     H    0.65111   0.32225   0.95222   1.000
    H42     H    0.04380   0.31400   0.95171   1.000
    H43     H    0.54381   0.31400   0.95171   1.000
    H44     H    0.04296   0.57354   0.85481   1.000
    H45     H    0.54297   0.57354   0.85481   1.000
    H46     H    0.15015   0.56933   0.85970   1.000
    H47     H    0.65016   0.56933   0.85970   1.000
    H48     H    0.15080   0.67775   0.04770   1.000
    H49     H    0.65081   0.67775   0.04770   1.000
    H50     H    0.04348   0.68597   0.04821   1.000
    H51     H    0.54349   0.68597   0.04821   1.000
    H52     H    0.04327   0.42648   0.14520   1.000
    H53     H    0.54328   0.42648   0.14520   1.000
    H54     H    0.15044   0.43073   0.14034   1.000
    H55     H    0.65045   0.43073   0.14034   1.000
    H56     H    0.34891   0.17777   0.45229   1.000
    H57     H    0.84892   0.17777   0.45229   1.000
    H58     H    0.45621   0.18602   0.45175   1.000
    H59     H    0.95622   0.18602   0.45175   1.000
    H60     H    0.45704   0.92654   0.35483   1.000
    H61     H    0.95705   0.92654   0.35483   1.000
    H62     H    0.34985   0.93075   0.35973   1.000
    H63     H    0.84986   0.93075   0.35973   1.000
    H64     H    0.34922   0.82218   0.54763   1.000
    H65     H    0.84923   0.82218   0.54763   1.000
    H66     H    0.45654   0.81396   0.54817   1.000
    H67     H    0.95655   0.81396   0.54817   1.000
    H68     H    0.45673   0.07339   0.64519   1.000
    H69     H    0.95674   0.07339   0.64519   1.000
    H70     H    0.34956   0.06914   0.64030   1.000
    H71     H    0.84957   0.06914   0.64030   1.000
    H72     H    0.25001   0.97313   0.83241   1.000
    H73     H    0.75003   0.97313   0.83241   1.000
    H74     H    0.24996   0.79693   0.01926   1.000
    H75     H    0.74998   0.79693   0.01926   1.000
    H76     H    0.24997   0.69512   0.79763   1.000
    H77     H    0.74998   0.69512   0.79763   1.000
    H78     H    0.24999   0.02685   0.16756   1.000
    H79     H    0.75000   0.02685   0.16756   1.000
    H80     H    0.25004   0.20304   0.98070   1.000
    H81     H    0.75005   0.20304   0.98070   1.000
    H82     H    0.25005   0.30486   0.20230   1.000
    H83     H    0.75005   0.30486   0.20230   1.000
    H84     H    0.24999   0.52690   0.33242   1.000
    H85     H    0.75000   0.52690   0.33242   1.000
    H86     H    0.25004   0.70301   0.51922   1.000
    H87     H    0.75005   0.70301   0.51922   1.000
    H88     H    0.25004   0.80493   0.29759   1.000
    H89     H    0.75005   0.80493   0.29759   1.000
    H90     H    0.25002   0.47307   0.66755   1.000
    H91     H    0.75003   0.47307   0.66755   1.000
    H92     H    0.24996   0.29696   0.48075   1.000
    H93     H    0.74998   0.29696   0.48075   1.000
    H94     H    0.24997   0.19504   0.70238   1.000
    H95     H    0.74998   0.19504   0.70238   1.000
    C96     C    0.37506   0.62344   0.06834   1.000
    C97     C    0.87507   0.62344   0.06834   1.000
    C98     C    0.43533   0.62709   0.06912   1.000
    C99     C    0.93534   0.62709   0.06912   1.000
    C100    C    0.46779   0.55591   0.09603   1.000
    C101    C    0.96780   0.55591   0.09603   1.000
    C102    C    0.43581   0.48417   0.12250   1.000
    C103    C    0.93582   0.48417   0.12250   1.000
    C104    C    0.37558   0.48546   0.12002   1.000
    C105    C    0.87559   0.48546   0.12002   1.000
    C106    C    0.37523   0.37650   0.93165   1.000
    C107    C    0.87524   0.37650   0.93165   1.000
    C108    C    0.43551   0.37287   0.93087   1.000
    C109    C    0.93552   0.37287   0.93087   1.000
    C110    C    0.46780   0.44405   0.90394   1.000
    C111    C    0.96781   0.44405   0.90394   1.000
    C112    C    0.43565   0.51576   0.87744   1.000
    C113    C    0.93565   0.51576   0.87740   1.000
    C114    C    0.37542   0.51445   0.87991   1.000
    C115    C    0.87543   0.51445   0.87991   1.000
    C116    C    0.12495   0.87647   0.56820   1.000
    C117    C    0.62496   0.87647   0.56829   1.000
    C118    C    0.06468   0.87282   0.56908   1.000
    C119    C    0.56469   0.87282   0.56908   1.000
    C120    C    0.03222   0.94397   0.59600   1.000
    C121    C    0.53223   0.94397   0.59600   1.000
    C122    C    0.06420   0.01572   0.62248   1.000
    C123    C    0.56421   0.01572   0.62248   1.000
    C124    C    0.12443   0.01444   0.61990   1.000
    C125    C    0.62444   0.01444   0.61999   1.000
    C126    C    0.12478   0.12354   0.43170   1.000
    C127    C    0.62479   0.12353   0.43170   1.000
    C128    C    0.06450   0.12717   0.43091   1.000
    C129    C    0.56451   0.12717   0.43091   1.000
    C130    C    0.03221   0.05602   0.40396   1.000
    C131    C    0.53222   0.05602   0.40396   1.000
    C132    C    0.06437   0.98430   0.37746   1.000
    C133    C    0.56438   0.98430   0.37746   1.000
    C134    C    0.12459   0.98561   0.37994   1.000
    C135    C    0.62460   0.98560   0.37994   1.000
    C136    C    0.12495   0.37653   0.93163   1.000
    C137    C    0.62496   0.37653   0.93163   1.000
    C138    C    0.06468   0.37289   0.93085   1.000
    C139    C    0.56469   0.37289   0.93085   1.000
    C140    C    0.03222   0.44406   0.90394   1.000
    C141    C    0.53223   0.44406   0.90394   1.000
    C142    C    0.06420   0.51580   0.87740   1.000
    C143    C    0.56421   0.51580   0.87740   1.000
    C144    C    0.12443   0.51451   0.87995   1.000
    C145    C    0.62444   0.51451   0.87995   1.000
    C146    C    0.12478   0.62347   0.06832   1.000
    C147    C    0.62479   0.62347   0.06832   1.000
    C148    C    0.06450   0.62710   0.06910   1.000
    C149    C    0.56451   0.62710   0.06910   1.000
    C150    C    0.03221   0.55593   0.09603   1.000
    C151    C    0.53222   0.55593   0.09603   1.000
    C152    C    0.06436   0.48421   0.12253   1.000
    C153    C    0.56437   0.48421   0.12253   1.000
    C154    C    0.12459   0.48553   0.12006   1.000
    C155    C    0.62460   0.48552   0.12006   1.000
    C156    C    0.37506   0.12350   0.43168   1.000
    C157    C    0.87507   0.12350   0.43168   1.000
    C158    C    0.43533   0.12715   0.43089   1.000
    C159    C    0.93534   0.12715   0.43089   1.000
    C160    C    0.46779   0.05600   0.40397   1.000
    C161    C    0.96780   0.05600   0.40397   1.000
    C162    C    0.43581   0.98425   0.37749   1.000
    C163    C    0.93582   0.98425   0.37749   1.000
    C164    C    0.37558   0.98554   0.37998   1.000
    C165    C    0.87559   0.98554   0.37998   1.000
    C166    C    0.37523   0.87644   0.56827   1.000
    C167    C    0.87524   0.87644   0.56827   1.000
    C168    C    0.43551   0.87281   0.56906   1.000
    C169    C    0.93552   0.87281   0.56906   1.000
    C170    C    0.46780   0.94396   0.59600   1.000
    C171    C    0.96781   0.94396   0.59600   1.000
    C172    C    0.43564   0.01568   0.62251   1.000
    C173    C    0.93565   0.01568   0.62251   1.000
    C174    C    0.37542   0.01437   0.62003   1.000
    C175    C    0.87543   0.01437   0.62003   1.000
    C176    C    0.24998   0.83581   0.80707   1.000
    C177    C    0.75002   0.83581   0.80707   1.000
    C178    C    0.25000   0.90717   0.85521   1.000
    C179    C    0.75002   0.90717   0.85521   1.000
    C180    C    0.24999   0.89456   0.93210   1.000
    C181    C    0.75001   0.89456   0.93210   1.000
    C182    C    0.24997   0.80847   0.96003   1.000
    C183    C    0.74999   0.80847   0.96003   1.000
    C184    C    0.24997   0.73686   0.91182   1.000
    C185    C    0.74998   0.73686   0.91182   1.000
    C186    C    0.24998   0.75051   0.83543   1.000
    C187    C    0.74999   0.75051   0.83543   1.000
    C188    C    0.25000   0.85124   0.72485   1.000
    C189    C    0.75002   0.85124   0.72485   1.000
    C190    C    0.24995   0.64580   0.94315   1.000
    C191    C    0.74996   0.64580   0.94315   1.000
    C192    C    0.24999   0.96785   0.98000   1.000
    C193    C    0.75002   0.96785   0.98000   1.000
    C194    C    0.25001   0.16416   0.19200   1.000
    C195    C    0.75002   0.16416   0.19200   1.000
    C196    C    0.25000   0.09280   0.14476   1.000
    C197    C    0.75001   0.09280   0.14476   1.000
    C198    C    0.25001   0.10541   0.06785   1.000
    C199    C    0.75002   0.10541   0.06785   1.000
    C200    C    0.25003   0.19150   0.03994   1.000
    C201    C    0.75004   0.19150   0.03994   1.000
    C202    C    0.25004   0.26311   0.08815   1.000
    C203    C    0.75005   0.26311   0.08815   1.000
    C204    C    0.25004   0.24947   0.16454   1.000
    C205    C    0.75004   0.24947   0.16454   1.000
    C206    C    0.25000   0.14873   0.27511   1.000
    C207    C    0.75001   0.14873   0.27511   1.000
    C208    C    0.25005   0.35418   0.05682   1.000
    C209    C    0.75007   0.35418   0.05682   1.000
    C210    C    0.25000   0.03213   0.01995   1.000
    C211    C    0.75002   0.03213   0.01995   1.000
    C212    C    0.25001   0.66422   0.30700   1.000
    C213    C    0.75002   0.66422   0.30700   1.000
    C214    C    0.25000   0.59285   0.35521   1.000
    C215    C    0.75001   0.59285   0.35521   1.000
    C216    C    0.25001   0.60543   0.43211   1.000
    C217    C    0.75002   0.60543   0.43211   1.000
    C218    C    0.25003   0.69150   0.46001   1.000
    C219    C    0.75004   0.69150   0.46001   1.000
    C220    C    0.25004   0.76313   0.41170   1.000
    C221    C    0.75005   0.76313   0.41170   1.000
    C222    C    0.25003   0.74952   0.33539   1.000
    C223    C    0.75004   0.74952   0.33539   1.000
    C224    C    0.25001   0.64879   0.22484   1.000
    C225    C    0.75002   0.64879   0.22484   1.000
    C226    C    0.25006   0.85418   0.44312   1.000
    C227    C    0.75007   0.85418   0.44312   1.000
    C228    C    0.25000   0.53212   0.48002   1.000
    C229    C    0.75002   0.53212   0.48002   1.000
    C230    C    0.25000   0.33575   0.69291   1.000
    C231    C    0.75001   0.33575   0.69291   1.000
    C232    C    0.25001   0.40713   0.64470   1.000
    C233    C    0.75002   0.40713   0.64470   1.000
    C234    C    0.25000   0.39455   0.56786   1.000
    C235    C    0.75001   0.39455   0.56786   1.000
    C236    C    0.24998   0.30847   0.53996   1.000
    C237    C    0.74999   0.30847   0.53996   1.000
    C238    C    0.24997   0.23684   0.58818   1.000
    C239    C    0.74998   0.23684   0.58818   1.000
    C240    C    0.24998   0.25045   0.66450   1.000
    C241    C    0.74999   0.25045   0.66450   1.000
    C242    C    0.25000   0.35119   0.77513   1.000
    C243    C    0.75001   0.35119   0.77513   1.000
    C244    C    0.24995   0.14580   0.55685   1.000
    C245    C    0.74996   0.14580   0.55685   1.000
    C246    C    0.25000   0.46785   0.51995   1.000
    C247    C    0.75001   0.46785   0.51995   1.000
    N248    N    0.34518   0.55336   0.09246   1.000
    N249    N    0.84519   0.55336   0.09246   1.000
    N250    N    0.34518   0.44655   0.90750   1.000
    N251    N    0.84519   0.44655   0.90750   1.000
    N252    N    0.15483   0.94653   0.59241   1.000
    N253    N    0.65484   0.94653   0.59241   1.000
    N254    N    0.15482   0.05350   0.40755   1.000
    N255    N    0.65483   0.05350   0.40755   1.000
    N256    N    0.15483   0.44661   0.90751   1.000
    N257    N    0.65484   0.44661   0.90751   1.000
    N258    N    0.15483   0.55342   0.09247   1.000
    N259    N    0.65484   0.55342   0.09247   1.000
    N260    N    0.34518   0.05344   0.40756   1.000
    N261    N    0.84519   0.05344   0.40756   1.000
    N262    N    0.34518   0.94647   0.59242   1.000
    N263    N    0.84519   0.94647   0.59242   1.000
    O264    O    0.24996   0.63988   0.01302   1.000
    O265    O    0.74997   0.63988   0.01302   1.000
    O266    O    0.24994   0.58236   0.89767   1.000
    O267    O    0.74994   0.58236   0.89767   1.000
    O268    O    0.25001   0.93343   0.70593   1.000
    O269    O    0.75001   0.93343   0.70593   1.000
    O270    O    0.25001   0.78838   0.68103   1.000
    O271    O    0.75001   0.78838   0.68103   1.000
    O272    O    0.25005   0.36009   0.98695   1.000
    O273    O    0.75006   0.36009   0.98695   1.000
    O274    O    0.25008   0.41762   0.10230   1.000
    O275    O    0.75008   0.41762   0.10230   1.000
    O276    O    0.25000   0.06654   0.29404   1.000
    O277    O    0.75001   0.06654   0.29404   1.000
    O278    O    0.25001   0.21159   0.31894   1.000
    O279    O    0.75002   0.21159   0.31894   1.000
    O280    O    0.25005   0.86005   0.51297   1.000
    O281    O    0.75006   0.86005   0.51297   1.000
    O282    O    0.25007   0.91765   0.39764   1.000
    O283    O    0.75008   0.91765   0.39764   1.000
    O284    O    0.25000   0.56659   0.20595   1.000
    O285    O    0.75001   0.56659   0.20595   1.000
    O286    O    0.25001   0.71166   0.18099   1.000
    O287    O    0.75002   0.71166   0.18099   1.000
    O288    O    0.24996   0.13992   0.48700   1.000
    O289    O    0.74997   0.13992   0.48700   1.000
    O290    O    0.24994   0.08233   0.60233   1.000
    O291    O    0.74995   0.08233   0.60233   1.000
    O292    O    0.25001   0.43338   0.79400   1.000
    O293    O    0.75002   0.43338   0.79401   1.000
    O294    O    0.25000   0.28832   0.81898   1.000
    O295    O    0.75001   0.28832   0.81898   1.000
loop_
    _geom_bond_atom_site_label_1
    _geom_bond_atom_site_label_2
    _geom_bond_distance
    _geom_bond_site_symmetry_2
    _ccdc_geom_bond_type
    O265   Zn1       2.03291      .   S
    O265   C191      1.27230  1_554   S
    O264   Zn0       2.03291      .   S
    O264   C190      1.27230  1_554   S
    H74    C182      1.09012  1_554   S
    H75    C183      1.09012  1_554   S
    C211   C199      1.41727      .   S
    C211   C193      1.22039  1_544   S
    C210   C198      1.41727      .   S
    C210   C192      1.22039  1_544   S
    C200   C198      1.40820      .   S
    C200   C202      1.40066      .   S
    C200   H80       1.09029  1_554   S
    C201   C199      1.40820      .   S
    C201   C203      1.40066      .   S
    C201   H81       1.09029  1_554   S
    H48    C146      1.08963      .   S
    H49    C147      1.08962      .   S
    H9     C97       1.08962      .   S
    H8     C96       1.08961      .   S
    H50    C148      1.08807      .   S
    H51    C149      1.08807      .   S
    H11    C99       1.08805      .   S
    H10    C98       1.08805      .   S
    C209   C203      1.50165      .   S
    C209   O275      1.27295      .   S
    C209   O273      1.27230  1_554   S
    C208   C202      1.50165      .   S
    C208   O274      1.27295      .   S
    C208   O272      1.27230  1_554   S
    C199   C197      1.41013      .   S
    C198   C196      1.41013      .   S
    C146   C148      1.38975      .   S
    C146   N258      1.34605      .   S
    C147   C149      1.38975      .   S
    C147   N259      1.34603      .   S
    C96    C98       1.38972      .   S
    C96    N248      1.34606      .   S
    C97    C99       1.38972      .   S
    C97    N249      1.34604      .   S
    C148   C150      1.40538      .   S
    C149   C151      1.40537      .   S
    C99    C101      1.40538      .   S
    C98    C100      1.40538      .   S
    C202   C204      1.40303      .   S
    C203   C205      1.40303      .   S
    N248   Zn0       2.19431      .   S
    N248   C104      1.34617      .   S
    N249   Zn1       2.19431      .   S
    N249   C105      1.34621      .   S
    N258   Zn0       2.19435      .   S
    N258   C154      1.34617      .   S
    N259   Zn1       2.19435      .   S
    N259   C155      1.34619      .   S
    C150   C101      1.48374  1_455   S
    C150   C152      1.40542      .   S
    C101   C103      1.40545      .   S
    C100   C151      1.48421      .   S
    C100   C102      1.40544      .   S
    C151   C153      1.40542      .   S
    Zn1    O275      2.05187      .   S
    Zn1    O285      1.99004      .   S
    Zn0    O274      2.05187      .   S
    Zn0    O284      1.99004      .   S
    C104   C102      1.38838      .   S
    C104   H14       1.08985      .   S
    C105   C103      1.38835      .   S
    C105   H15       1.08984      .   S
    C155   C153      1.38833      .   S
    C155   H55       1.08986      .   S
    C154   C152      1.38835      .   S
    C154   H54       1.08986      .   S
    C103   H13       1.08776      .   S
    C102   H12       1.08774      .   S
    C152   H52       1.08774      .   S
    C153   H53       1.08775      .   S
    C196   H78       1.08838      .   S
    C196   C194      1.38671      .   S
    C197   H79       1.08838      .   S
    C197   C195      1.38671      .   S
    C205   C195      1.39405      .   S
    C205   H83       1.08880      .   S
    C204   C194      1.39405      .   S
    C204   H82       1.08880      .   S
    O286   C224      1.24685      .   S
    O287   C225      1.24685      .   S
    C195   C207      1.52780      .   S
    C194   C206      1.52780      .   S
    O284   C224      1.30064      .   S
    O285   C225      1.30064      .   S
    C225   C213      1.51091      .   S
    C224   C212      1.51091      .   S
    C206   O276      1.30055      .   S
    C206   O278      1.24691      .   S
    C207   O277      1.30055      .   S
    C207   O279      1.24691      .   S
    O276   Zn6       1.98974      .   S
    O277   Zn7       1.98974      .   S
    H89    C223      1.08914      .   S
    H88    C222      1.08914      .   S
    C212   C222      1.40037      .   S
    C212   C214      1.39744      .   S
    C213   C223      1.40037      .   S
    C213   C215      1.39744      .   S
    H84    C214      1.08841      .   S
    H85    C215      1.08841      .   S
    C222   C220      1.40165      .   S
    C223   C221      1.40165      .   S
    H37    C133      1.08776      .   S
    H36    C132      1.08775      .   S
    H61    C163      1.08776      .   S
    H60    C162      1.08775      .   S
    C214   C216      1.41000      .   S
    C215   C217      1.41000      .   S
    H38    C134      1.09022      .   S
    H39    C135      1.08978      .   S
    H62    C164      1.08984      .   S
    H63    C165      1.08983      .   S
    C132   C134      1.38834      .   S
    C132   C130      1.40579  1_565   S
    C133   C135      1.38834      .   S
    C133   C131      1.40580  1_565   S
    C162   C164      1.38838      .   S
    C162   C160      1.40578  1_565   S
    C163   C165      1.38836      .   S
    C163   C161      1.40581  1_565   S
    C134   N254      1.34651  1_565   S
    C135   N255      1.34653  1_565   S
    C165   N261      1.34658  1_565   S
    C164   N260      1.34656  1_565   S
    O283   Zn7       2.05218  1_565   S
    O283   C227      1.27291      .   S
    O282   Zn6       2.05218  1_565   S
    O282   C226      1.27291      .   S
    Zn6    N254      2.19437      .   S
    Zn6    N260      2.19431      .   S
    Zn6    O288      2.03395      .   S
    Zn7    N255      2.19435      .   S
    Zn7    N261      2.19433      .   S
    Zn7    O289      2.03396      .   S
    C131   C160      1.48423      .   S
    C131   C129      1.40544      .   S
    C130   C161      1.48379  1_455   S
    C130   C128      1.40543      .   S
    C161   C159      1.40538      .   S
    C160   C158      1.40539      .   S
    N255   C127      1.34602      .   S
    N254   C126      1.34605      .   S
    N260   C156      1.34606      .   S
    N261   C157      1.34604      .   S
    C220   C226      1.50229      .   S
    C220   C218      1.40163      .   S
    C221   C227      1.50229      .   S
    C221   C219      1.40163      .   S
    C159   C157      1.38973      .   S
    C159   H59       1.08805      .   S
    C158   C156      1.38973      .   S
    C158   H58       1.08804      .   S
    C129   C127      1.38976      .   S
    C129   H35       1.08309      .   S
    C128   C126      1.38975      .   S
    C128   H34       1.08308      .   S
    C157   H57       1.08964      .   S
    C156   H56       1.08962      .   S
    C126   H32       1.08964      .   S
    C127   H33       1.08965      .   S
    C216   C218      1.40820      .   S
    C216   C228      1.41717      .   S
    C217   C219      1.40820      .   S
    C217   C229      1.41717      .   S
    C227   O281      1.27195      .   S
    C226   O280      1.27195      .   S
    C219   H87       1.08979      .   S
    C218   H86       1.08979      .   S
    C228   C246      1.21973      .   S
    C229   C247      1.21973      .   S
    H92    C236      1.08979      .   S
    H93    C237      1.08979      .   S
    O288   C244      1.27195      .   S
    O289   C245      1.27195      .   S
    O281   Zn5       2.03367      .   S
    O280   Zn4       2.03367      .   S
    C247   C235      1.41717      .   S
    C246   C234      1.41717      .   S
    C237   C235      1.40820      .   S
    C237   C239      1.40062      .   S
    C236   C234      1.40820      .   S
    C236   C238      1.40062      .   S
    H64    C166      1.08965      .   S
    H65    C167      1.08965      .   S
    H24    C116      1.08906      .   S
    H25    C117      1.08964      .   S
    H66    C168      1.08806      .   S
    H67    C169      1.08807      .   S
    H27    C119      1.08803      .   S
    H26    C118      1.08804      .   S
    C245   C239      1.50167      .   S
    C245   O291      1.27291      .   S
    C244   C238      1.50167      .   S
    C244   O290      1.27291      .   S
    C235   C233      1.40892      .   S
    C234   C232      1.40892      .   S
    C116   C118      1.38974      .   S
    C116   N252      1.34658      .   S
    C166   C168      1.38975      .   S
    C166   N262      1.34603      .   S
    C167   C169      1.38973      .   S
    C167   N263      1.34605      .   S
    C117   C119      1.38973      .   S
    C117   N253      1.34606      .   S
    C168   C170      1.40536      .   S
    C169   C171      1.40536      .   S
    C118   C120      1.40539      .   S
    C119   C121      1.40538      .   S
    C238   C240      1.40183      .   S
    C239   C241      1.40183      .   S
    N253   Zn5       2.19430      .   S
    N253   C125      1.34658  1_565   S
    N252   Zn4       2.19430      .   S
    N252   C124      1.34599  1_565   S
    N262   Zn4       2.19434      .   S
    N262   C174      1.34653  1_565   S
    N263   Zn5       2.19434      .   S
    N263   C175      1.34654  1_565   S
    C120   C171      1.48377  1_455   S
    C120   C122      1.40581  1_565   S
    C171   C173      1.40585  1_565   S
    C170   C121      1.48423      .   S
    C170   C172      1.40585  1_565   S
    C121   C123      1.40581  1_565   S
    Zn5    O291      2.05220  1_565   S
    Zn5    O269      1.99010      .   S
    Zn4    O290      2.05220  1_565   S
    Zn4    O268      1.99010      .   S
    C124   C122      1.38844      .   S
    C124   H30       1.09038      .   S
    C125   C123      1.38836      .   S
    C125   H31       1.08984      .   S
    C175   C173      1.38834      .   S
    C175   H71       1.08979      .   S
    C174   C172      1.38834      .   S
    C174   H70       1.08978      .   S
    C122   H28       1.08775      .   S
    C123   H29       1.08776      .   S
    C173   H69       1.08776      .   S
    C172   H68       1.08778      .   S
    C233   H91       1.08882      .   S
    C233   C231      1.39744      .   S
    C232   H90       1.08882      .   S
    C232   C230      1.39743      .   S
    C240   C230      1.40052      .   S
    C240   H94       1.09006      .   S
    C241   C231      1.40052      .   S
    C241   H95       1.09006      .   S
    O271   C189      1.24679      .   S
    O270   C188      1.24680      .   S
    C231   C243      1.51198      .   S
    C230   C242      1.51198      .   S
    O268   C188      1.30049      .   S
    O269   C189      1.30049      .   S
    C188   C176      1.51183      .   S
    C189   C177      1.51183      .   S
    C243   O293      1.30059      .   S
    C243   O295      1.24684      .   S
    C242   O292      1.30055      .   S
    C242   O294      1.24684      .   S
    O292   Zn2       1.98896      .   S
    O293   Zn3       1.98878      .   S
    H77    C187      1.08924      .   S
    H76    C186      1.08924      .   S
    C176   C186      1.39998      .   S
    C176   C178      1.39689      .   S
    C177   C187      1.39998      .   S
    C177   C179      1.39689      .   S
    H73    C179      1.08838      .   S
    H72    C178      1.08838      .   S
    C186   C184      1.40302      .   S
    C187   C185      1.40302      .   S
    H21    C113      1.08750      .   S
    H20    C112      1.08775      .   S
    H44    C142      1.08732      .   S
    H45    C143      1.08732      .   S
    C178   C180      1.40976      .   S
    C179   C181      1.40976      .   S
    H23    C115      1.08984      .   S
    H22    C114      1.08985      .   S
    H47    C145      1.08985      .   S
    H46    C144      1.08985      .   S
    C113   C115      1.38835      .   S
    C113   C111      1.40567      .   S
    C143   C145      1.38842      .   S
    C143   C141      1.40586      .   S
    C142   C144      1.38842      .   S
    C142   C140      1.40587      .   S
    C112   C114      1.38835      .   S
    C112   C110      1.40542      .   S
    C115   N251      1.34619      .   S
    C114   N250      1.34621      .   S
    C144   N256      1.34616      .   S
    C145   N257      1.34615      .   S
    O266   Zn2       2.05180      .   S
    O266   C190      1.27296      .   S
    O267   Zn3       2.05180      .   S
    O267   C191      1.27296      .   S
    Zn2    N250      2.19440      .   S
    Zn2    N256      2.19439      .   S
    Zn2    O272      2.03401      .   S
    Zn3    N251      2.19443      .   S
    Zn3    N257      2.19436      .   S
    Zn3    O273      2.03400      .   S
    C141   C110      1.48421      .   S
    C141   C139      1.40538      .   S
    C140   C111      1.48374  1_455   S
    C140   C138      1.40538      .   S
    C110   C108      1.40538      .   S
    C111   C109      1.40539      .   S
    N251   C107      1.34601      .   S
    N250   C106      1.34600      .   S
    N257   C137      1.34606      .   S
    N256   C136      1.34605      .   S
    C184   C190      1.50165      .   S
    C184   C182      1.40066      .   S
    C185   C191      1.50165      .   S
    C185   C183      1.40066      .   S
    C139   C137      1.38975      .   S
    C139   H43       1.08804      .   S
    C138   C136      1.38972      .   S
    C138   H42       1.08805      .   S
    C108   C106      1.38973      .   S
    C108   H18       1.08808      .   S
    C109   C107      1.38975      .   S
    C109   H19       1.08807      .   S
    C136   H40       1.08961      .   S
    C137   H41       1.08961      .   S
    C107   H17       1.08963      .   S
    C106   H16       1.08965      .   S
    C181   C183      1.40833      .   S
    C181   C193      1.41727      .   S
    C180   C182      1.40833      .   S
    C180   C192      1.41727      .   S
