# CIF file generated by openbabel 2.4.90, see http://openbabel.sf.net
data_I
_chemical_name_common ''
_cell_length_a 16.158
_cell_length_b 18.104
_cell_length_c 18.807
_cell_angle_alpha 90
_cell_angle_beta 90
_cell_angle_gamma 92.615
_space_group_name_H-M_alt 'P 1'
_space_group_name_Hall 'P 1'
loop_
    _symmetry_equiv_pos_as_xyz
    x,y,z
loop_
    _atom_site_label
    _atom_site_type_symbol
    _atom_site_fract_x
    _atom_site_fract_y
    _atom_site_fract_z
    _atom_site_occupancy
    Zr0     Zr   0.65484   0.35188   0.50350   1.000
    Zr1     Zr   0.82975   0.37721   0.50379   1.000
    Zr2     Zr   0.66517   0.86314   0.00033   1.000
    Zr3     Zr   0.84069   0.88855   0.00000   1.000
    Zr4     Zr   0.36395   0.15953   0.00000   1.000
    Zr5     Zr   0.18843   0.13412   0.00000   1.000
    Zr6     Zr   0.37428   0.67079   0.50400   1.000
    Zr7     Zr   0.19937   0.64546   0.50378   1.000
    Zr8     Zr   0.73682   0.45676   0.61188   1.000
    Zr9     Zr   0.76197   0.76570   0.91781   1.000
    Zr10    Zr   0.73240   0.47415   0.41208   1.000
    Zr11    Zr   0.76078   0.78530   0.10736   1.000
    Zr12    Zr   0.74762   0.96810   0.89954   1.000
    Zr13    Zr   0.75111   0.25435   0.59353   1.000
    Zr14    Zr   0.74281   0.98543   0.09173   1.000
    Zr15    Zr   0.75032   0.27402   0.39642   1.000
    Zr16    Zr   0.28149   0.05457   0.10803   1.000
    Zr17    Zr   0.27800   0.76833   0.41403   1.000
    Zr18    Zr   0.28630   0.03724   0.91583   1.000
    Zr19    Zr   0.27880   0.74865   0.61114   1.000
    Zr20    Zr   0.29230   0.56591   0.39569   1.000
    Zr21    Zr   0.26714   0.25698   0.08976   1.000
    Zr22    Zr   0.29672   0.54853   0.59540   1.000
    Zr23    Zr   0.26834   0.23737   0.90020   1.000
    Zr24    Zr   0.67076   0.43662   0.57886   1.000
    Zr25    Zr   0.80975   0.43783   0.59640   1.000
    Zr26    Zr   0.82853   0.79283   0.94566   1.000
    Zr27    Zr   0.68912   0.78671   0.93002   1.000
    Zr28    Zr   0.80300   0.46889   0.44179   1.000
    Zr29    Zr   0.66726   0.43461   0.42626   1.000
    Zr30    Zr   0.69025   0.78692   0.07728   1.000
    Zr31    Zr   0.82545   0.82427   0.09043   1.000
    Zr32    Zr   0.68159   0.94799   0.93260   1.000
    Zr33    Zr   0.82056   0.94915   0.91496   1.000
    Zr34    Zr   0.81765   0.28151   0.56568   1.000
    Zr35    Zr   0.67825   0.27534   0.58135   1.000
    Zr36    Zr   0.81340   0.98017   0.06199   1.000
    Zr37    Zr   0.67766   0.94590   0.07758   1.000
    Zr38    Zr   0.67980   0.27566   0.42653   1.000
    Zr39    Zr   0.81500   0.31298   0.41334   1.000
    Zr40    Zr   0.34753   0.07468   0.07497   1.000
    Zr41    Zr   0.20855   0.07352   0.09260   1.000
    Zr42    Zr   0.21146   0.74116   0.44189   1.000
    Zr43    Zr   0.35087   0.74734   0.42621   1.000
    Zr44    Zr   0.21571   0.04250   0.94550   1.000
    Zr45    Zr   0.35145   0.07677   0.92999   1.000
    Zr46    Zr   0.34931   0.74701   0.58104   1.000
    Zr47    Zr   0.21411   0.70969   0.59423   1.000
    Zr48    Zr   0.35835   0.58605   0.42870   1.000
    Zr49    Zr   0.21936   0.58485   0.41116   1.000
    Zr50    Zr   0.20059   0.22984   0.06191   1.000
    Zr51    Zr   0.34000   0.23596   0.07755   1.000
    Zr52    Zr   0.22611   0.55378   0.56577   1.000
    Zr53    Zr   0.36186   0.58806   0.58131   1.000
    Zr54    Zr   0.33886   0.23576   0.93029   1.000
    Zr55    Zr   0.20367   0.19840   0.91714   1.000
    O56     O    0.82705   0.93436   0.03100   1.000
    O57     O    0.83307   0.85641   0.04521   1.000
    O58     O    0.83063   0.91885   0.95748   1.000
    O59     O    0.83461   0.84069   0.97283   1.000
    O60     O    0.35574   0.11711   0.03748   1.000
    O61     O    0.35197   0.19775   0.03877   1.000
    O62     O    0.35770   0.11815   0.96500   1.000
    O63     O    0.35141   0.19764   0.96514   1.000
    O64     O    0.67771   0.82503   0.03881   1.000
    O65     O    0.67142   0.90452   0.03896   1.000
    O66     O    0.67714   0.82493   0.96518   1.000
    O67     O    0.67338   0.90557   0.96647   1.000
    O68     O    0.23387   0.24341   0.07583   1.000
    O69     O    0.19451   0.18198   0.03095   1.000
    O70     O    0.77811   0.98280   0.07686   1.000
    O71     O    0.31451   0.06463   0.09150   1.000
    O72     O    0.72552   0.78611   0.09232   1.000
    O73     O    0.30357   0.24647   0.08366   1.000
    O74     O    0.71024   0.96566   0.08465   1.000
    O75     O    0.79311   0.80478   0.09890   1.000
    O76     O    0.24502   0.06405   0.10032   1.000
    O77     O    0.19849   0.10382   0.04630   1.000
    O78     O    0.25583   0.57538   0.40342   1.000
    O79     O    0.32533   0.57598   0.41220   1.000
    O80     O    0.78266   0.29350   0.40488   1.000
    O81     O    0.71506   0.27484   0.41148   1.000
    O82     O    0.20937   0.61515   0.45747   1.000
    O83     O    0.69983   0.45438   0.41917   1.000
    O84     O    0.76770   0.47152   0.42694   1.000
    O85     O    0.82238   0.34510   0.45857   1.000
    O86     O    0.31444   0.75783   0.42012   1.000
    O87     O    0.24473   0.75474   0.42796   1.000
    O88     O    0.36258   0.70906   0.46510   1.000
    O89     O    0.66105   0.39325   0.46488   1.000
    O90     O    0.66732   0.31377   0.46502   1.000
    O91     O    0.36632   0.62842   0.46635   1.000
    O92     O    0.81638   0.42305   0.47279   1.000
    O93     O    0.20542   0.69331   0.47284   1.000
    O94     O    0.66280   0.39425   0.54118   1.000
    O95     O    0.66654   0.31361   0.54242   1.000
    O96     O    0.21274   0.59962   0.53478   1.000
    O97     O    0.20674   0.67757   0.54901   1.000
    O98     O    0.82370   0.32936   0.53474   1.000
    O99     O    0.81975   0.40752   0.55010   1.000
    O100    O    0.36180   0.70890   0.54252   1.000
    O101    O    0.36807   0.62943   0.54265   1.000
    O102    O    0.78438   0.26793   0.57961   1.000
    O103    O    0.26142   0.55115   0.58059   1.000
    O104    O    0.70379   0.44669   0.59537   1.000
    O105    O    0.31406   0.74783   0.59609   1.000
    O106    O    0.32929   0.56829   0.58836   1.000
    O107    O    0.71468   0.26484   0.58744   1.000
    O108    O    0.24646   0.72917   0.60269   1.000
    O109    O    0.77329   0.44729   0.60414   1.000
    O110    O    0.78409   0.95863   0.90725   1.000
    O111    O    0.71461   0.95805   0.91607   1.000
    O112    O    0.23600   0.21789   0.90867   1.000
    O113    O    0.30360   0.23657   0.91524   1.000
    O114    O    0.31888   0.05701   0.92291   1.000
    O115    O    0.25101   0.03987   0.93067   1.000
    O116    O    0.19605   0.16626   0.95857   1.000
    O117    O    0.72555   0.77620   0.92392   1.000
    O118    O    0.79525   0.77926   0.93174   1.000
    O119    O    0.20207   0.08831   0.97275   1.000
    O120    O    0.74229   0.36455   0.50365   1.000
    O121    O    0.75293   0.87585   0.00016   1.000
    O122    O    0.27619   0.14683   0.00000   1.000
    O123    O    0.28682   0.65813   0.50389   1.000
    N124    N    0.24092   0.36956   0.51081   1.000
    O125    O    0.06722   0.37566   0.50730   1.000
    O126    O    0.41616   0.35992   0.50886   1.000
    N127    N    0.77754   0.14184   0.01029   1.000
    O128    O    0.95126   0.13573   0.00514   1.000
    O129    O    0.60231   0.15147   0.00674   1.000
    N130    N    0.28054   0.41706   0.23742   1.000
    O131    O    0.27174   0.35246   0.17669   1.000
    O132    O    0.28876   0.47813   0.30151   1.000
    N133    N    0.25068   0.88083   0.99671   1.000
    O134    O    0.07741   0.88694   0.99833   1.000
    O135    O    0.42636   0.87120   0.99844   1.000
    N136    N    0.74632   0.63310   0.26277   1.000
    O137    O    0.73735   0.56812   0.32333   1.000
    O138    O    0.75553   0.69590   0.20025   1.000
    N139    N    0.74190   0.09399   0.74124   1.000
    O140    O    0.74240   0.03902   0.80534   1.000
    O141    O    0.74863   0.15873   0.68049   1.000
    N142    N    0.78818   0.65311   0.49673   1.000
    O143    O    0.96189   0.64702   0.50025   1.000
    O144    O    0.61295   0.66275   0.49868   1.000
    N145    N    0.74857   0.60561   0.77005   1.000
    O146    O    0.74035   0.54454   0.70601   1.000
    O147    O    0.75738   0.67022   0.83083   1.000
    N148    N    0.28722   0.92415   0.26606   1.000
    O149    O    0.28049   0.86168   0.32694   1.000
    O150    O    0.28672   0.97601   0.20209   1.000
    N151    N    0.73700   0.12182   0.24102   1.000
    O152    O    0.73260   0.06247   0.18046   1.000
    O153    O    0.74562   0.18462   0.30354   1.000
    N154    N    0.29212   0.89935   0.76653   1.000
    O155    O    0.28349   0.83730   0.70402   1.000
    O156    O    0.29652   0.95898   0.82709   1.000
    N157    N    0.28280   0.38957   0.74477   1.000
    O158    O    0.29177   0.45456   0.68419   1.000
    O159    O    0.27359   0.32677   0.80730   1.000
loop_
    _geom_bond_atom_site_label_1
    _geom_bond_atom_site_label_2
    _geom_bond_distance
    _geom_bond_site_symmetry_2
    _ccdc_geom_bond_type
    Zr3    O56       1.04541      .   S
    Zr36   O56       1.04541      .   S
    Zr3    O57       1.03456      .   S
    Zr31   O57       1.03456      .   S
    Zr3    O58       0.98740  1_554   S
    Zr33   O58       0.98740      .   S
    Zr3    O59       1.00685  1_554   S
    Zr26   O59       1.00685      .   S
    Zr4    O60       1.04653      .   S
    Zr40   O60       1.04653      .   S
    Zr4    O61       1.02961      .   S
    Zr51   O61       1.02961      .   S
    Zr4    O62       0.99896  1_554   S
    Zr45   O62       0.99896      .   S
    Zr4    O63       0.97960  1_554   S
    Zr54   O63       0.97960      .   S
    Zr2    O64       1.02641      .   S
    Zr30   O64       1.02641      .   S
    Zr2    O65       1.04508      .   S
    Zr37   O65       1.04508      .   S
    Zr2    O66       0.98257  1_554   S
    Zr27   O66       0.98257      .   S
    Zr2    O67       1.00194  1_554   S
    Zr32   O67       1.00194      .   S
    Zr50   O68       0.63718      .   S
    Zr21   O68       0.63718      .   S
    Zr50   O69       1.04477      .   S
    Zr5    O69       1.04477      .   S
    Zr36   O70       0.63890      .   S
    Zr14   O70       0.63890      .   S
    Zr40   O71       0.63685      .   S
    Zr16   O71       0.63685      .   S
    Zr30   O72       0.63690      .   S
    Zr11   O72       0.63690      .   S
    Zr51   O73       0.63720      .   S
    Zr21   O73       0.63720      .   S
    Zr37   O74       0.63685      .   S
    Zr14   O74       0.63685      .   S
    Zr31   O75       0.63714      .   S
    Zr11   O75       0.63714      .   S
    Zr41   O76       0.63791      .   S
    Zr16   O76       0.63791      .   S
    Zr41   O77       1.04581      .   S
    Zr5    O77       1.04581      .   S
    Zr20   O78       0.63791      .   S
    Zr49   O78       0.63791      .   S
    Zr20   O79       0.63683      .   S
    Zr48   O79       0.63683      .   S
    Zr15   O80       0.63717      .   S
    Zr39   O80       0.63717      .   S
    Zr15   O81       0.63696      .   S
    Zr38   O81       0.63696      .   S
    Zr49   O82       1.04583      .   S
    Zr7    O82       1.04583      .   S
    Zr10   O83       0.63686      .   S
    Zr29   O83       0.63686      .   S
    Zr10   O84       0.63890      .   S
    Zr28   O84       0.63890      .   S
    Zr39   O85       1.03411      .   S
    Zr1    O85       1.03411      .   S
    Zr17   O86       0.63718      .   S
    Zr43   O86       0.63718      .   S
    Zr17   O87       0.63720      .   S
    Zr42   O87       0.63720      .   S
    Zr43   O88       1.03095      .   S
    Zr6    O88       1.03095      .   S
    Zr29   O89       1.04482      .   S
    Zr0    O89       1.04482      .   S
    Zr38   O90       1.02628      .   S
    Zr0    O90       1.02628      .   S
    Zr48   O91       1.04752      .   S
    Zr6    O91       1.04752      .   S
    Zr28   O92       1.04482      .   S
    Zr1    O92       1.04482      .   S
    Zr42   O93       1.04451      .   S
    Zr7    O93       1.04451      .   S
    Zr0    O94       1.04793      .   S
    Zr24   O94       1.04793      .   S
    Zr0    O95       1.03135      .   S
    Zr35   O95       1.03135      .   S
    Zr7    O96       1.04477      .   S
    Zr52   O96       1.04477      .   S
    Zr7    O97       1.03410      .   S
    Zr47   O97       1.03410      .   S
    Zr1    O98       1.04451      .   S
    Zr34   O98       1.04451      .   S
    Zr1    O99       1.04575      .   S
    Zr25   O99       1.04575      .   S
    Zr6    O100      1.02673      .   S
    Zr46   O100      1.02673      .   S
    Zr6    O101      1.04528      .   S
    Zr53   O101      1.04528      .   S
    Zr34   O102      0.63716      .   S
    Zr13   O102      0.63716      .   S
    Zr52   O103      0.63857      .   S
    Zr22   O103      0.63857      .   S
    Zr24   O104      0.63687      .   S
    Zr8    O104      0.63687      .   S
    Zr46   O105      0.63692      .   S
    Zr19   O105      0.63692      .   S
    Zr53   O106      0.63669      .   S
    Zr22   O106      0.63669      .   S
    Zr35   O107      0.63718      .   S
    Zr13   O107      0.63718      .   S
    Zr47   O108      0.63714      .   S
    Zr19   O108      0.63714      .   S
    Zr25   O109      0.63793      .   S
    Zr8    O109      0.63793      .   S
    Zr12   O110      0.63790      .   S
    Zr33   O110      0.63790      .   S
    Zr12   O111      0.63684      .   S
    Zr32   O111      0.63684      .   S
    Zr23   O112      0.63716      .   S
    Zr55   O112      0.63716      .   S
    Zr23   O113      0.63694      .   S
    Zr54   O113      0.63694      .   S
    Zr18   O114      0.63686      .   S
    Zr45   O114      0.63686      .   S
    Zr18   O115      0.63862      .   S
    Zr44   O115      0.63862      .   S
    Zr55   O116      0.97689      .   S
    Zr5    O116      0.97689  1_554   S
    Zr9    O117      0.63720      .   S
    Zr27   O117      0.63720      .   S
    Zr9    O118      0.63718      .   S
    Zr26   O118      0.63718      .   S
    Zr44   O119      1.00783      .   S
    Zr5    O119      1.00783  1_554   S
    Zr0    O120      1.42123      .   S
    Zr1    O120      1.42123      .   S
    Zr2    O121      1.42619      .   S
    Zr3    O121      1.42619      .   S
    Zr4    O122      1.42618      .   S
    Zr5    O122      1.42618      .   S
    Zr6    O123      1.42123      .   S
    Zr7    O123      1.42123      .   S
    N124   O125      2.81471      .   S
    Zr1    O125      3.83897  1_655   S
    N124   O126      2.84501      .   S
    Zr0    O126      3.86726      .   S
    N127   O128      2.81584      .   S
    Zr5    O128      3.83490  1_455   S
    N127   O129      2.84541      .   S
    Zr4    O129      3.86287      .   S
    N130   O131      1.63624      .   S
    Zr21   O131      2.37796      .   S
    N130   O132      1.63694      .   S
    Zr20   O132      2.37864      .   S
    N133   O134      2.80707      .   S
    Zr3    O134      3.82653  1_654   S
    N133   O135      2.85207      .   S
    Zr2    O135      3.86822  1_554   S
    N136   O137      1.63918      .   S
    Zr10   O137      2.38206      .   S
    N136   O138      1.63760      .   S
    Zr11   O138      2.38030      .   S
    N139   O140      1.56349      .   S
    Zr12   O140      2.19177  1_565   S
    N139   O141      1.63691      .   S
    Zr13   O141      2.38040      .   S
    N142   O143      2.81486      .   S
    Zr7    O143      3.83911  1_455   S
    N142   O144      2.84487      .   S
    Zr6    O144      3.86710      .   S
    N145   O146      1.63627      .   S
    Zr8    O146      2.37790      .   S
    N145   O147      1.63690      .   S
    Zr9    O147      2.37861      .   S
    N148   O149      1.60954      .   S
    Zr17   O149      2.35255      .   S
    N148   O150      1.52636      .   S
    Zr16   O150      2.27380  1_545   S
    N151   O152      1.56522      .   S
    Zr14   O152      2.18600  1_565   S
    N151   O153      1.63700      .   S
    Zr15   O153      2.38021      .   S
    N154   O155      1.62757      .   S
    Zr19   O155      2.37101      .   S
    N154   O156      1.56878      .   S
    Zr18   O156      2.20025  1_545   S
    N157   O158      1.63944      .   S
    Zr22   O158      2.38259      .   S
    N157   O159      1.63774      .   S
    Zr23   O159      2.38043      .   S
