# CIF file generated by openbabel 2.4.90, see http://openbabel.sf.net
data_I
_chemical_name_common ''
_cell_length_a 16.158
_cell_length_b 18.104
_cell_length_c 18.807
_cell_angle_alpha 90
_cell_angle_beta 90
_cell_angle_gamma 92.615
_space_group_name_H-M_alt 'P 1'
_space_group_name_Hall 'P 1'
loop_
    _symmetry_equiv_pos_as_xyz
    x,y,z
loop_
    _atom_site_label
    _atom_site_type_symbol
    _atom_site_fract_x
    _atom_site_fract_y
    _atom_site_fract_z
    _atom_site_occupancy
    N0      N    0.24092   0.36956   0.51081   1.000
    N1      N    0.77754   0.14184   0.01029   1.000
    N2      N    0.28054   0.41706   0.23742   1.000
    N3      N    0.25068   0.88083   0.99671   1.000
    N4      N    0.74632   0.63310   0.26277   1.000
    N5      N    0.74190   0.09399   0.74124   1.000
    N6      N    0.78818   0.65311   0.49673   1.000
    N7      N    0.74857   0.60561   0.77005   1.000
    N8      N    0.28722   0.92415   0.26606   1.000
    N9      N    0.73700   0.12182   0.24102   1.000
    N10     N    0.29212   0.89935   0.76653   1.000
    N11     N    0.28280   0.38957   0.74477   1.000
    Zr12    Zr   0.75326   0.87644   0.00338   1.000
    O13     O    0.75532   0.77333   0.91710   1.000
    O14     O    0.58981   0.87382   0.00091   1.000
    O15     O    0.74293   0.96946   0.09192   1.000
    O16     O    0.74783   0.95773   0.90436   1.000
    O17     O    0.91533   0.88169   0.00086   1.000
    O18     O    0.75439   0.78617   0.10181   1.000
    Zr19    Zr   0.27586   0.14623   0.00313   1.000
    O20     O    0.11356   0.14098   0.00414   1.000
    O21     O    0.28129   0.06112   0.10261   1.000
    O22     O    0.27472   0.23650   0.90521   1.000
    O23     O    0.28619   0.05261   0.91511   1.000
    O24     O    0.43908   0.14885   0.00493   1.000
    O25     O    0.27380   0.24934   0.08991   1.000
    Zr26    Zr   0.74262   0.36513   0.50367   1.000
    O27     O    0.73999   0.46662   0.41350   1.000
    O28     O    0.74412   0.27488   0.40360   1.000
    O29     O    0.74149   0.45484   0.60484   1.000
    O30     O    0.90492   0.37039   0.50549   1.000
    O31     O    0.57939   0.36253   0.50627   1.000
    O32     O    0.74562   0.26193   0.59208   1.000
    Zr33    Zr   0.28649   0.65754   0.50388   1.000
    O34     O    0.28499   0.74742   0.60395   1.000
    O35     O    0.44972   0.66014   0.50128   1.000
    O36     O    0.28763   0.56784   0.40270   1.000
    O37     O    0.28349   0.75961   0.41541   1.000
    O38     O    0.12419   0.65228   0.50207   1.000
    O39     O    0.28913   0.55605   0.59404   1.000
loop_
    _geom_bond_atom_site_label_1
    _geom_bond_atom_site_label_2
    _geom_bond_distance
    _geom_bond_site_symmetry_2
    _ccdc_geom_bond_type
    Zr12   O13       2.47471  1_554   S
    N7     O13       4.10479      .   S
    Zr12   O14       2.63969      .   S
    N3     O14       5.48745  1_556   S
    Zr12   O15       2.37954      .   S
    N9     O15       3.93775  1_545   S
    Zr12   O16       2.37763  1_554   S
    N5     O16       3.94046  1_545   S
    Zr12   O17       2.61665      .   S
    N3     O17       5.41981  1_456   S
    Zr12   O18       2.47003      .   S
    N4     O18       4.10200      .   S
    Zr19   O20       2.61993      .   S
    N1     O20       5.43140  1_655   S
    Zr19   O21       2.42789      .   S
    N8     O21       3.95346  1_565   S
    Zr19   O22       2.46266  1_554   S
    N11    O22       4.09488      .   S
    Zr19   O23       2.38049  1_554   S
    N10    O23       3.94213  1_565   S
    Zr19   O24       2.63586      .   S
    N1     O24       5.47690      .   S
    Zr19   O25       2.48099      .   S
    N2     O25       4.11060      .   S
    Zr26   O27       2.50221      .   S
    N4     O27       4.13552      .   S
    Zr26   O28       2.49315      .   S
    N9     O28       4.12444      .   S
    Zr26   O29       2.50215      .   S
    N7     O29       4.13401      .   S
    Zr26   O30       2.61999      .   S
    N0     O30       5.43076  1_455   S
    Zr26   O31       2.63622      .   S
    N0     O31       5.47693      .   S
    Zr26   O32       2.50315      .   S
    N5     O32       4.13528      .   S
    Zr33   O34       2.48873      .   S
    N10    O34       4.11076      .   S
    Zr33   O35       2.63616      .   S
    N6     O35       5.47673      .   S
    Zr33   O36       2.50241      .   S
    N2     O36       4.13495      .   S
    Zr33   O37       2.48868      .   S
    N8     O37       4.09269      .   S
    Zr33   O38       2.62006      .   S
    N6     O38       5.43097  1_655   S
    Zr33   O39       2.50200      .   S
    N11    O39       4.13557      .   S
