# CIF file generated by openbabel 2.4.90, see http://openbabel.sf.net
data_I
_chemical_name_common ''
_cell_length_a 11.706
_cell_length_b 20.742
_cell_length_c 23.396
_cell_angle_alpha 86.75
_cell_angle_beta 87.624
_cell_angle_gamma 83.614
_space_group_name_H-M_alt 'P 1'
_space_group_name_Hall 'P 1'
loop_
    _symmetry_equiv_pos_as_xyz
    x,y,z
loop_
    _atom_site_label
    _atom_site_type_symbol
    _atom_site_fract_x
    _atom_site_fract_y
    _atom_site_fract_z
    _atom_site_occupancy
    La0     La   0.11065   0.07129   0.73552   1.000
    La1     La   0.11064   0.57129   0.23552   1.000
    La2     La   0.11065   0.57128   0.73552   1.000
    La3     La   0.61067   0.07129   0.23551   1.000
    La4     La   0.61067   0.07129   0.73552   1.000
    La5     La   0.61066   0.57129   0.23552   1.000
    La6     La   0.61067   0.57128   0.73552   1.000
    La7     La   0.38931   0.42870   0.26448   1.000
    La8     La   0.38931   0.42870   0.76448   1.000
    La9     La   0.38930   0.92870   0.26448   1.000
    La10    La   0.38932   0.92869   0.76448   1.000
    La11    La   0.88933   0.42870   0.26448   1.000
    La12    La   0.88933   0.42870   0.76448   1.000
    La13    La   0.88932   0.92870   0.26448   1.000
    La14    La   0.88934   0.92869   0.76448   1.000
    P15     P    0.35467   0.08968   0.33058   1.000
    P16     P    0.35468   0.08968   0.83059   1.000
    P17     P    0.35467   0.58967   0.33058   1.000
    P18     P    0.35467   0.58967   0.83059   1.000
    P19     P    0.85468   0.08968   0.33058   1.000
    P20     P    0.85469   0.08968   0.83059   1.000
    P21     P    0.85468   0.58968   0.33058   1.000
    P22     P    0.85469   0.58967   0.83059   1.000
    P23     P    0.33965   0.07476   0.15734   1.000
    P24     P    0.33966   0.07475   0.65734   1.000
    P25     P    0.33965   0.57475   0.15734   1.000
    P26     P    0.33965   0.57475   0.65734   1.000
    P27     P    0.83967   0.07476   0.15734   1.000
    P28     P    0.83967   0.07475   0.65734   1.000
    P29     P    0.83966   0.57475   0.15734   1.000
    P30     P    0.83967   0.57475   0.65734   1.000
    P31     P    0.14524   0.41033   0.16940   1.000
    La32    La   0.11065   0.07129   0.23551   1.000
    P33     P    0.14526   0.41032   0.66941   1.000
    P34     P    0.14525   0.91032   0.16940   1.000
    P35     P    0.14525   0.91031   0.66941   1.000
    P36     P    0.64526   0.41033   0.16940   1.000
    P37     P    0.64527   0.41032   0.66940   1.000
    P38     P    0.64526   0.91033   0.16940   1.000
    P39     P    0.64526   0.91032   0.66940   1.000
    P40     P    0.16032   0.42523   0.34266   1.000
    P41     P    0.16033   0.42523   0.84266   1.000
    P42     P    0.16032   0.92523   0.34266   1.000
    P43     P    0.16032   0.92522   0.84266   1.000
    P44     P    0.66034   0.42523   0.34266   1.000
    P45     P    0.66034   0.42523   0.84266   1.000
    P46     P    0.66034   0.92523   0.34266   1.000
    P47     P    0.66034   0.92522   0.84266   1.000
    H48     H    0.24477   0.47764   0.08415   1.000
    H49     H    0.24477   0.47764   0.58410   1.000
    H50     H    0.24476   0.97764   0.08415   1.000
    H51     H    0.24477   0.97763   0.58415   1.000
    H52     H    0.74477   0.47764   0.08415   1.000
    H53     H    0.74478   0.47764   0.58415   1.000
    H54     H    0.74477   0.97764   0.08415   1.000
    H55     H    0.74477   0.97763   0.58415   1.000
    H56     H    0.00947   0.14103   0.36555   1.000
    H57     H    0.00947   0.14102   0.86550   1.000
    H58     H    0.00946   0.64102   0.36555   1.000
    H59     H    0.00947   0.64102   0.86556   1.000
    H60     H    0.50949   0.14103   0.36555   1.000
    H61     H    0.50949   0.14102   0.86550   1.000
    H62     H    0.50948   0.64103   0.36555   1.000
    H63     H    0.50950   0.64102   0.86556   1.000
    H64     H    0.38171   0.19595   0.36228   1.000
    H65     H    0.38171   0.19594   0.86229   1.000
    H66     H    0.38170   0.69594   0.36228   1.000
    H67     H    0.38171   0.69593   0.86220   1.000
    H68     H    0.88172   0.19595   0.36228   1.000
    H69     H    0.88172   0.19594   0.86229   1.000
    H70     H    0.88171   0.69594   0.36228   1.000
    H71     H    0.88173   0.69594   0.86228   1.000
    H72     H    0.33696   0.19061   0.23679   1.000
    H73     H    0.33697   0.19060   0.73680   1.000
    H74     H    0.33696   0.69060   0.23679   1.000
    H75     H    0.33697   0.69059   0.73680   1.000
    H76     H    0.83698   0.19061   0.23679   1.000
    H77     H    0.83699   0.19060   0.73680   1.000
    H78     H    0.83698   0.69060   0.23679   1.000
    H79     H    0.83698   0.69060   0.73680   1.000
    H80     H    0.34064   0.25913   0.27908   1.000
    H81     H    0.34063   0.25914   0.77908   1.000
    H82     H    0.34062   0.75914   0.27907   1.000
    H83     H    0.34064   0.75912   0.77909   1.000
    H84     H    0.84065   0.25913   0.27908   1.000
    H85     H    0.84065   0.25914   0.77908   1.000
    H86     H    0.84064   0.75914   0.27907   1.000
    H87     H    0.84066   0.75912   0.77909   1.000
    H88     H    0.01287   0.27228   0.32991   1.000
    H89     H    0.01288   0.27229   0.82992   1.000
    H90     H    0.01287   0.77229   0.32991   1.000
    H91     H    0.01287   0.77227   0.82992   1.000
    H92     H    0.51288   0.27228   0.32991   1.000
    H93     H    0.51290   0.27229   0.82990   1.000
    H94     H    0.51289   0.77229   0.32991   1.000
    H95     H    0.51289   0.77227   0.82992   1.000
    H96     H    0.13434   0.21206   0.32378   1.000
    H97     H    0.13435   0.21206   0.82378   1.000
    H98     H    0.13434   0.71206   0.32378   1.000
    H99     H    0.13435   0.71205   0.82379   1.000
    H100    H    0.98712   0.72768   0.67010   1.000
    H101    H    0.36563   0.28792   0.17622   1.000
    H102    H    0.36564   0.28792   0.67623   1.000
    H103    H    0.36563   0.78792   0.17622   1.000
    H104    H    0.63436   0.21206   0.32378   1.000
    H105    H    0.63437   0.21206   0.82370   1.000
    H106    H    0.63436   0.71206   0.32378   1.000
    H107    H    0.63437   0.71205   0.82379   1.000
    H108    H    0.45579   0.00086   0.09969   1.000
    H109    H    0.45580   0.00085   0.59969   1.000
    H110    H    0.45579   0.50085   0.09969   1.000
    H111    H    0.45579   0.50084   0.59969   1.000
    H112    H    0.95580   0.00086   0.09969   1.000
    H113    H    0.95581   0.00085   0.59969   1.000
    H114    H    0.95580   0.50085   0.09969   1.000
    H115    H    0.95580   0.50084   0.59969   1.000
    H116    H    0.42352   0.07649   0.06069   1.000
    H117    H    0.42353   0.07648   0.56070   1.000
    H118    H    0.42352   0.57648   0.06069   1.000
    H119    H    0.42353   0.57648   0.56070   1.000
    H120    H    0.92353   0.07649   0.06069   1.000
    H121    H    0.92354   0.07648   0.56000   1.000
    H122    H    0.92353   0.57648   0.06069   1.000
    H123    H    0.92354   0.57648   0.56000   1.000
    H124    H    0.41435   0.49786   0.48343   1.000
    H125    H    0.41435   0.49785   0.98343   1.000
    H126    H    0.41434   0.99785   0.48343   1.000
    H127    H    0.41435   0.99785   0.98343   1.000
    H128    H    0.91435   0.49786   0.48343   1.000
    H129    H    0.91436   0.49785   0.98343   1.000
    H130    H    0.91435   0.99785   0.48343   1.000
    H131    H    0.91436   0.99785   0.98343   1.000
    C132    C    0.43710   0.15909   0.33824   1.000
    C133    C    0.43711   0.15909   0.83825   1.000
    C134    C    0.43710   0.65910   0.33824   1.000
    C135    C    0.43711   0.65908   0.83825   1.000
    C136    C    0.93712   0.15909   0.33820   1.000
    H137    H    0.41632   0.42901   0.03340   1.000
    H138    H    0.41633   0.42900   0.53340   1.000
    H139    H    0.41632   0.92900   0.03340   1.000
    H140    H    0.41633   0.92900   0.53340   1.000
    H141    H    0.91633   0.42900   0.03344   1.000
    H142    H    0.91633   0.42900   0.53340   1.000
    H143    H    0.91633   0.92900   0.03340   1.000
    H144    H    0.91633   0.92899   0.53340   1.000
    H145    H    0.17552   0.09115   0.05839   1.000
    H146    H    0.17553   0.09114   0.55840   1.000
    H147    H    0.17552   0.59114   0.05839   1.000
    H148    H    0.17553   0.59114   0.55839   1.000
    H149    H    0.67553   0.09115   0.05839   1.000
    H150    H    0.67553   0.09114   0.55840   1.000
    H151    H    0.67552   0.59114   0.05839   1.000
    H152    H    0.67553   0.59114   0.55800   1.000
    H153    H    0.27538   0.09278   0.49820   1.000
    H154    H    0.27539   0.09278   0.99828   1.000
    H155    H    0.27538   0.59278   0.49828   1.000
    H156    H    0.27539   0.59277   0.99828   1.000
    H157    H    0.77539   0.09278   0.49820   1.000
    H158    H    0.77539   0.09278   0.99828   1.000
    H159    H    0.77539   0.59278   0.49828   1.000
    H160    H    0.77539   0.59277   0.99828   1.000
    H161    H    0.25516   0.02235   0.41580   1.000
    H162    H    0.25517   0.02234   0.91585   1.000
    H163    H    0.25516   0.52234   0.41585   1.000
    H164    H    0.25517   0.52233   0.91585   1.000
    H165    H    0.75517   0.02235   0.41580   1.000
    H166    H    0.75517   0.02234   0.91585   1.000
    H167    H    0.75516   0.52234   0.41585   1.000
    H168    H    0.75517   0.52234   0.91585   1.000
    H169    H    0.49047   0.35895   0.13440   1.000
    H170    H    0.49047   0.35894   0.63446   1.000
    H171    H    0.49046   0.85894   0.13445   1.000
    H172    H    0.49048   0.85894   0.63446   1.000
    H173    H    0.99050   0.35895   0.13440   1.000
    H174    H    0.99050   0.35894   0.63446   1.000
    H175    H    0.99049   0.85894   0.13445   1.000
    H176    H    0.99050   0.85894   0.63446   1.000
    H177    H    0.11826   0.30405   0.13772   1.000
    H178    H    0.11826   0.30404   0.63773   1.000
    H179    H    0.11825   0.80404   0.13773   1.000
    H180    H    0.11827   0.80404   0.63773   1.000
    H181    H    0.61828   0.30405   0.13772   1.000
    H182    H    0.61828   0.30404   0.63773   1.000
    H183    H    0.61827   0.80404   0.13773   1.000
    H184    H    0.61829   0.80404   0.63773   1.000
    H185    H    0.16300   0.30938   0.26321   1.000
    H186    H    0.16301   0.30938   0.76322   1.000
    H187    H    0.16300   0.80938   0.26321   1.000
    H188    H    0.16301   0.80937   0.76322   1.000
    H189    H    0.66302   0.30938   0.26321   1.000
    H190    H    0.66303   0.30938   0.76322   1.000
    H191    H    0.66302   0.80938   0.26321   1.000
    H192    H    0.66303   0.80937   0.76322   1.000
    H193    H    0.15934   0.24085   0.22093   1.000
    H194    H    0.15934   0.24085   0.72093   1.000
    H195    H    0.15933   0.74085   0.22092   1.000
    H196    H    0.15935   0.74084   0.72093   1.000
    H197    H    0.65936   0.24085   0.22093   1.000
    H198    H    0.65936   0.24085   0.72093   1.000
    H199    H    0.65935   0.74085   0.22092   1.000
    H200    H    0.65937   0.74084   0.72090   1.000
    H201    H    0.48710   0.22769   0.17000   1.000
    H202    H    0.48712   0.22770   0.67010   1.000
    H203    H    0.48711   0.72770   0.17000   1.000
    H204    H    0.48711   0.72768   0.67010   1.000
    H205    H    0.98711   0.22769   0.17000   1.000
    H206    H    0.98713   0.22770   0.67010   1.000
    H207    H    0.98712   0.72770   0.17000   1.000
    O208    O    0.93932   0.03955   0.79774   1.000
    O209    O    0.93930   0.53955   0.29774   1.000
    O210    O    0.93931   0.53954   0.79774   1.000
    O211    O    0.33245   0.06450   0.39307   1.000
    O212    O    0.33246   0.06449   0.89300   1.000
    O213    O    0.33244   0.56449   0.39307   1.000
    O214    O    0.33245   0.56448   0.89308   1.000
    O215    O    0.83244   0.06450   0.39307   1.000
    H216    H    0.36564   0.78791   0.67623   1.000
    H217    H    0.86564   0.28792   0.17622   1.000
    H218    H    0.86565   0.28792   0.67623   1.000
    H219    H    0.86565   0.78792   0.17622   1.000
    H220    H    0.86565   0.78791   0.67623   1.000
    H221    H    0.04418   0.49913   0.40031   1.000
    H222    H    0.04419   0.49912   0.90032   1.000
    H223    H    0.04418   0.99912   0.40031   1.000
    H224    H    0.04419   0.99911   0.90032   1.000
    H225    H    0.54419   0.49912   0.40031   1.000
    H226    H    0.54420   0.49911   0.90030   1.000
    H227    H    0.54419   0.99912   0.40031   1.000
    H228    H    0.54419   0.99911   0.90030   1.000
    H229    H    0.07644   0.42349   0.43930   1.000
    H230    H    0.07645   0.42348   0.93931   1.000
    H231    H    0.07644   0.92348   0.43930   1.000
    H232    H    0.07644   0.92347   0.93931   1.000
    H233    H    0.57645   0.42349   0.43930   1.000
    H234    H    0.57646   0.42348   0.93931   1.000
    H235    H    0.57645   0.92348   0.43930   1.000
    H236    H    0.57645   0.92347   0.93931   1.000
    H237    H    0.08562   0.00212   0.01650   1.000
    H238    H    0.08563   0.00212   0.51658   1.000
    H239    H    0.08562   0.50212   0.01650   1.000
    H240    H    0.08562   0.50212   0.51658   1.000
    H241    H    0.58563   0.00212   0.01650   1.000
    H242    H    0.58564   0.00212   0.51658   1.000
    H243    H    0.58562   0.50212   0.01650   1.000
    H244    H    0.58563   0.50212   0.51658   1.000
    H245    H    0.08366   0.07098   0.46657   1.000
    H246    H    0.08366   0.07097   0.96657   1.000
    H247    H    0.08365   0.57097   0.46657   1.000
    H248    H    0.08366   0.57096   0.96657   1.000
    H249    H    0.58366   0.07097   0.46657   1.000
    H250    H    0.58367   0.07097   0.96657   1.000
    H251    H    0.58366   0.57097   0.46657   1.000
    H252    H    0.58367   0.57096   0.96657   1.000
    H253    H    0.32446   0.40883   0.44161   1.000
    H254    H    0.32446   0.40883   0.94161   1.000
    H255    H    0.32446   0.90883   0.44161   1.000
    H256    H    0.32446   0.90882   0.94161   1.000
    H257    H    0.82446   0.40883   0.44161   1.000
    H258    H    0.82447   0.40883   0.94161   1.000
    H259    H    0.82446   0.90883   0.44161   1.000
    H260    H    0.82447   0.90882   0.94161   1.000
    H261    H    0.22460   0.40719   0.00170   1.000
    H262    H    0.22460   0.40719   0.50172   1.000
    H263    H    0.22460   0.90718   0.00172   1.000
    H264    H    0.22460   0.90718   0.50172   1.000
    H265    H    0.72460   0.40719   0.00170   1.000
    H266    H    0.72461   0.40719   0.50172   1.000
    H267    H    0.72460   0.90718   0.00170   1.000
    H268    H    0.72461   0.90718   0.50172   1.000
    C269    C    0.93713   0.15909   0.83825   1.000
    C270    C    0.93712   0.65909   0.33824   1.000
    C271    C    0.93712   0.65908   0.83825   1.000
    C272    C    0.39273   0.22501   0.25102   1.000
    C273    C    0.39274   0.22500   0.75105   1.000
    C274    C    0.39274   0.72500   0.25104   1.000
    C275    C    0.39274   0.72500   0.75103   1.000
    C276    C    0.89275   0.22501   0.25103   1.000
    C277    C    0.89276   0.22500   0.75105   1.000
    C278    C    0.89275   0.72500   0.25104   1.000
    C279    C    0.89276   0.72500   0.75100   1.000
    C280    C    0.06122   0.23773   0.30100   1.000
    C281    C    0.06121   0.23771   0.80101   1.000
    C282    C    0.06120   0.73771   0.30101   1.000
    C283    C    0.06123   0.73771   0.80101   1.000
    C284    C    0.56124   0.23773   0.30100   1.000
    C285    C    0.56122   0.23771   0.80101   1.000
    C286    C    0.56121   0.73771   0.30101   1.000
    C287    C    0.56124   0.73771   0.80101   1.000
    C288    C    0.38636   0.03915   0.08857   1.000
    C289    C    0.38636   0.03914   0.58857   1.000
    C290    C    0.38636   0.53914   0.08857   1.000
    C291    C    0.38636   0.53913   0.58857   1.000
    C292    C    0.88637   0.03915   0.08857   1.000
    C293    C    0.88637   0.03914   0.58857   1.000
    C294    C    0.88636   0.53914   0.08857   1.000
    C295    C    0.88637   0.53913   0.58857   1.000
    C296    C    0.36104   0.46766   0.01090   1.000
    C297    C    0.36104   0.46766   0.51090   1.000
    C298    C    0.36103   0.96766   0.01090   1.000
    C299    C    0.36104   0.96765   0.51090   1.000
    C300    C    0.86104   0.46766   0.01090   1.000
    C301    C    0.86105   0.46766   0.51090   1.000
    C302    C    0.86104   0.96765   0.01090   1.000
    C303    C    0.86105   0.96765   0.51090   1.000
    C304    C    0.22198   0.06194   0.02531   1.000
    C305    C    0.22199   0.06193   0.52531   1.000
    C306    C    0.22198   0.56193   0.02531   1.000
    C307    C    0.22199   0.56193   0.52531   1.000
    C308    C    0.72199   0.06194   0.02531   1.000
    C309    C    0.72199   0.06194   0.52531   1.000
    C310    C    0.72198   0.56193   0.02531   1.000
    C311    C    0.72199   0.56193   0.52531   1.000
    C312    C    0.06285   0.34089   0.16176   1.000
    C313    C    0.06286   0.34089   0.66176   1.000
    C314    C    0.06285   0.84089   0.16176   1.000
    C315    C    0.06285   0.84088   0.66177   1.000
    C316    C    0.56286   0.34089   0.16176   1.000
    C317    C    0.56287   0.34089   0.66170   1.000
    C318    C    0.56286   0.84089   0.16176   1.000
    C319    C    0.56287   0.84088   0.66177   1.000
    C320    C    0.10723   0.27499   0.24896   1.000
    C321    C    0.10724   0.27498   0.74898   1.000
    C322    C    0.10723   0.77497   0.24898   1.000
    C323    C    0.10724   0.77497   0.74897   1.000
    C324    C    0.60725   0.27499   0.24896   1.000
    C325    C    0.60726   0.27498   0.74898   1.000
    C326    C    0.60725   0.77497   0.24898   1.000
    C327    C    0.60725   0.77497   0.74897   1.000
    C328    C    0.43877   0.26227   0.19900   1.000
    C329    C    0.43876   0.26226   0.69901   1.000
    C330    C    0.43874   0.76225   0.19900   1.000
    C331    C    0.43877   0.76226   0.69900   1.000
    C332    C    0.93878   0.26227   0.19900   1.000
    C333    C    0.93877   0.26226   0.69901   1.000
    C334    C    0.93876   0.76225   0.19900   1.000
    C335    C    0.93879   0.76226   0.69901   1.000
    C336    C    0.11361   0.46083   0.41140   1.000
    C337    C    0.11362   0.46082   0.91144   1.000
    C338    C    0.11361   0.96082   0.41140   1.000
    C339    C    0.11362   0.96082   0.91144   1.000
    C340    C    0.61362   0.46083   0.41140   1.000
    C341    C    0.61363   0.46082   0.91144   1.000
    C342    C    0.61362   0.96082   0.41143   1.000
    C343    C    0.61363   0.96082   0.91144   1.000
    C344    C    0.13893   0.03232   0.48911   1.000
    C345    C    0.13894   0.03231   0.98911   1.000
    C346    C    0.13893   0.53231   0.48911   1.000
    C347    C    0.13893   0.53231   0.98911   1.000
    C348    C    0.63894   0.03232   0.48911   1.000
    C349    C    0.63894   0.03231   0.98911   1.000
    C350    C    0.63894   0.53231   0.48911   1.000
    C351    C    0.63894   0.53231   0.98911   1.000
    C352    C    0.27799   0.43804   0.47400   1.000
    C353    C    0.27800   0.43804   0.97470   1.000
    C354    C    0.27799   0.93803   0.47469   1.000
    C355    C    0.27800   0.93803   0.97470   1.000
    C356    C    0.77800   0.43804   0.47400   1.000
    C357    C    0.77800   0.43804   0.97470   1.000
    C358    C    0.77799   0.93803   0.47400   1.000
    C359    C    0.77800   0.93803   0.97470   1.000
    N360    N    0.48594   0.18890   0.28493   1.000
    N361    N    0.48597   0.18887   0.78493   1.000
    N362    N    0.48597   0.68887   0.28492   1.000
    N363    N    0.48595   0.68889   0.78490   1.000
    N364    N    0.98596   0.18890   0.28493   1.000
    N365    N    0.98599   0.18888   0.78493   1.000
    N366    N    0.98598   0.68887   0.28492   1.000
    N367    N    0.98597   0.68889   0.78494   1.000
    N368    N    0.30044   0.00997   0.05516   1.000
    N369    N    0.30045   0.00997   0.55516   1.000
    N370    N    0.30044   0.50996   0.05516   1.000
    N371    N    0.30044   0.50996   0.55516   1.000
    N372    N    0.80045   0.00997   0.05516   1.000
    N373    N    0.80045   0.00997   0.55516   1.000
    N374    N    0.80044   0.50996   0.05516   1.000
    N375    N    0.80044   0.50996   0.55516   1.000
    N376    N    0.01400   0.31111   0.21508   1.000
    N377    N    0.01402   0.31109   0.71508   1.000
    N378    N    0.01402   0.81108   0.21507   1.000
    N379    N    0.01401   0.81110   0.71509   1.000
    N380    N    0.51401   0.31111   0.21509   1.000
    N381    N    0.51404   0.31109   0.71508   1.000
    N382    N    0.51404   0.81108   0.21507   1.000
    N383    N    0.51402   0.81110   0.71509   1.000
    N384    N    0.19953   0.49000   0.44485   1.000
    N385    N    0.19953   0.49000   0.94485   1.000
    N386    N    0.19952   0.99000   0.44485   1.000
    N387    N    0.19953   0.98999   0.94485   1.000
    N388    N    0.69953   0.49000   0.44485   1.000
    N389    N    0.69954   0.49000   0.94485   1.000
    N390    N    0.69953   0.99000   0.44485   1.000
    N391    N    0.69953   0.98999   0.94485   1.000
    O392    O    0.24546   0.11364   0.29806   1.000
    O393    O    0.24547   0.11364   0.79807   1.000
    O394    O    0.24547   0.61364   0.29806   1.000
    O395    O    0.24547   0.61363   0.79807   1.000
    O396    O    0.74548   0.11364   0.29806   1.000
    O397    O    0.74549   0.11364   0.79806   1.000
    O398    O    0.74548   0.61364   0.29806   1.000
    O399    O    0.74549   0.61363   0.79806   1.000
    O400    O    0.43929   0.03955   0.29774   1.000
    O401    O    0.43930   0.03955   0.79774   1.000
    O402    O    0.43929   0.53955   0.29774   1.000
    O403    O    0.43930   0.53954   0.79774   1.000
    O404    O    0.93931   0.03955   0.29774   1.000
    O405    O    0.83245   0.06449   0.89307   1.000
    O406    O    0.83244   0.56450   0.39307   1.000
    O407    O    0.83245   0.56449   0.89307   1.000
    O408    O    0.44935   0.10254   0.17224   1.000
    O409    O    0.44936   0.10253   0.67225   1.000
    O410    O    0.44935   0.60253   0.17224   1.000
    O411    O    0.44936   0.60252   0.67225   1.000
    O412    O    0.94937   0.10253   0.17224   1.000
    O413    O    0.94938   0.10253   0.67225   1.000
    O414    O    0.94937   0.60253   0.17224   1.000
    O415    O    0.94937   0.60252   0.67220   1.000
    O416    O    0.22979   0.12208   0.15227   1.000
    O417    O    0.22980   0.12207   0.65227   1.000
    O418    O    0.22979   0.62207   0.15227   1.000
    O419    O    0.22980   0.62206   0.65227   1.000
    O420    O    0.72981   0.12208   0.15227   1.000
    O421    O    0.72982   0.12207   0.65227   1.000
    O422    O    0.72981   0.62207   0.15227   1.000
    O423    O    0.72982   0.62206   0.65227   1.000
    O424    O    0.30651   0.01685   0.19736   1.000
    O425    O    0.30652   0.01684   0.69737   1.000
    O426    O    0.30651   0.51684   0.19736   1.000
    O427    O    0.30651   0.51684   0.69737   1.000
    O428    O    0.80653   0.01685   0.19736   1.000
    O429    O    0.80654   0.01684   0.69737   1.000
    O430    O    0.80653   0.51684   0.19736   1.000
    O431    O    0.80653   0.51684   0.69737   1.000
    O432    O    0.25452   0.38637   0.20187   1.000
    O433    O    0.25453   0.38637   0.70188   1.000
    O434    O    0.25452   0.88637   0.20187   1.000
    O435    O    0.25452   0.88636   0.70188   1.000
    O436    O    0.75453   0.38637   0.20187   1.000
    O437    O    0.75455   0.38637   0.70187   1.000
    O438    O    0.75454   0.88637   0.20187   1.000
    O439    O    0.75454   0.88636   0.70187   1.000
    O440    O    0.06066   0.46043   0.20228   1.000
    O441    O    0.06067   0.46043   0.70229   1.000
    O442    O    0.06066   0.96043   0.20228   1.000
    O443    O    0.06066   0.96042   0.70220   1.000
    O444    O    0.56068   0.46043   0.20220   1.000
    O445    O    0.56068   0.46043   0.70229   1.000
    O446    O    0.56067   0.96043   0.20229   1.000
    O447    O    0.56068   0.96042   0.70229   1.000
    O448    O    0.16729   0.43555   0.10691   1.000
    O449    O    0.16730   0.43555   0.60691   1.000
    O450    O    0.16729   0.93555   0.10691   1.000
    O451    O    0.16730   0.93554   0.60690   1.000
    O452    O    0.66729   0.43556   0.10691   1.000
    O453    O    0.66729   0.43555   0.60691   1.000
    O454    O    0.66728   0.93555   0.10691   1.000
    O455    O    0.66730   0.93554   0.60691   1.000
    O456    O    0.05063   0.39745   0.32775   1.000
    O457    O    0.05063   0.39745   0.82775   1.000
    O458    O    0.05062   0.89744   0.32775   1.000
    O459    O    0.05063   0.89744   0.82775   1.000
    O460    O    0.55065   0.39745   0.32775   1.000
    O461    O    0.55065   0.39744   0.82775   1.000
    O462    O    0.55064   0.89744   0.32775   1.000
    O463    O    0.55065   0.89744   0.82775   1.000
    O464    O    0.27019   0.37792   0.34772   1.000
    O465    O    0.27020   0.37792   0.84772   1.000
    O466    O    0.27019   0.87791   0.34772   1.000
    O467    O    0.27020   0.87791   0.84772   1.000
    O468    O    0.77021   0.37792   0.34772   1.000
    O469    O    0.77022   0.37792   0.84772   1.000
    O470    O    0.77021   0.87791   0.34772   1.000
    O471    O    0.77021   0.87791   0.84772   1.000
    O472    O    0.19344   0.48315   0.30264   1.000
    O473    O    0.19345   0.48314   0.80264   1.000
    O474    O    0.19344   0.98314   0.30260   1.000
    O475    O    0.19344   0.98314   0.80264   1.000
    O476    O    0.69346   0.48315   0.30260   1.000
    O477    O    0.69346   0.48314   0.80264   1.000
    O478    O    0.69346   0.98314   0.30260   1.000
    O479    O    0.69346   0.98314   0.80264   1.000
loop_
    _geom_bond_atom_site_label_1
    _geom_bond_atom_site_label_2
    _geom_bond_distance
    _geom_bond_site_symmetry_2
    _ccdc_geom_bond_type
    H267   C359      1.09978  1_554   S
    H265   C357      1.09979  1_554   S
    H261   C353      1.09978  1_554   S
    H263   C355      1.10003  1_554   S
    C302   H143      1.09715      .   S
    C302   N372      1.49982  1_565   S
    C302   C359      1.51657  1_554   S
    C302   H131      1.09674  1_554   S
    C296   H137      1.09715      .   S
    C296   N370      1.49971      .   S
    C296   C353      1.51656  1_554   S
    C296   H125      1.09675  1_554   S
    C298   H139      1.09717      .   S
    C298   N368      1.49979  1_565   S
    C298   C355      1.51657  1_554   S
    C298   H127      1.09673  1_554   S
    C300   H141      1.09759      .   S
    C300   N374      1.49972      .   S
    C300   C357      1.51656  1_554   S
    C300   H129      1.09675  1_554   S
    H243   C351      1.09568  1_554   S
    H241   C349      1.09569  1_554   S
    H239   C347      1.09568  1_554   S
    H237   C345      1.09569  1_554   S
    C310   N374      1.49692      .   S
    C310   H151      1.09854      .   S
    C310   C351      1.51659  1_554   S
    C310   H160      1.10015  1_554   S
    C308   N372      1.49690      .   S
    C308   H149      1.09856      .   S
    C308   C349      1.51661  1_554   S
    C308   H158      1.10013  1_554   S
    C306   N370      1.49693      .   S
    C306   H147      1.09854      .   S
    C306   C347      1.51660  1_554   S
    C306   H156      1.10014  1_554   S
    C304   N368      1.49691      .   S
    C304   H145      1.09854      .   S
    C304   C345      1.51661  1_554   S
    C304   H154      1.10014  1_554   S
    N368   H50       1.15911  1_545   S
    N368   C288      1.49768      .   S
    N374   H52       1.15894      .   S
    N374   C294      1.49767      .   S
    N370   H48       1.15891      .   S
    N370   C290      1.49767      .   S
    N372   H54       1.15913  1_545   S
    N372   C292      1.49769      .   S
    H118   C290      1.09948      .   S
    H120   C292      1.09948      .   S
    H116   C288      1.09947      .   S
    H122   C294      1.09948      .   S
    C294   H114      1.09985      .   S
    C294   P29       1.84530      .   S
    C292   H112      1.09984      .   S
    C292   P27       1.84529      .   S
    C290   H110      1.09983      .   S
    C290   P25       1.84531      .   S
    C288   H108      1.09985      .   S
    C288   P23       1.84530      .   S
    O452   P36       1.54592      .   S
    O450   P34       1.54590      .   S
    O448   P31       1.54594      .   S
    O454   P38       1.54589      .   S
    H173   C312      1.10203  1_655   S
    H169   C316      1.10238      .   S
    H175   C314      1.10140  1_655   S
    H171   C318      1.10175      .   S
    H177   C312      1.10874      .   S
    H181   C316      1.10872      .   S
    H179   C314      1.10873      .   S
    H183   C318      1.10869      .   S
    O418   P25       1.53291      .   S
    O418   La1       2.59181      .   S
    O420   P27       1.53290      .   S
    O420   La3       2.59166      .   S
    O422   P29       1.53291      .   S
    O422   La5       2.59181      .   S
    O416   P23       1.53289      .   S
    O416   La32      2.59166      .   S
    P29    O414      1.52549      .   S
    P29    O430      1.55437      .   S
    P27    O412      1.52548      .   S
    P27    O428      1.55435      .   S
    P23    O408      1.52548      .   S
    P23    O424      1.55435      .   S
    P25    O410      1.52548      .   S
    P25    O426      1.55435      .   S
    C316   P36       1.84094      .   S
    C316   N380      1.48232      .   S
    C312   P31       1.84093      .   S
    C312   N376      1.48217      .   S
    C314   P34       1.84088      .   S
    C314   N378      1.48214      .   S
    C318   P38       1.84090      .   S
    C318   N382      1.48211      .   S
    P34    O434      1.53512      .   S
    P34    O442      1.56554      .   S
    P38    O438      1.53518      .   S
    P38    O446      1.56561      .   S
    P31    O432      1.53511      .   S
    P31    O440      1.56556      .   S
    P36    O436      1.53517      .   S
    P36    O444      1.56456      .   S
    H203   C330      1.10799      .   S
    H205   C332      1.10808      .   S
    H207   C334      1.10798      .   S
    H201   C328      1.10813      .   S
    O412   La32      2.45485  1_655   S
    O410   La5       2.45525      .   S
    O408   La3       2.45519      .   S
    O414   La1       2.45491  1_655   S
    H103   C330      1.09741      .   S
    H101   C328      1.09751      .   S
    H219   C334      1.09743      .   S
    H217   C332      1.09752      .   S
    O430   La11      2.48077      .   S
    O428   La13      2.48082  1_545   S
    O426   La7       2.48079      .   S
    O424   La9       2.48083  1_545   S
    C334   N378      1.48737  1_655   S
    C334   C278      1.51698      .   S
    C328   N380      1.48762      .   S
    C328   C272      1.51678      .   S
    C330   N382      1.48767      .   S
    C330   C274      1.51697      .   S
    C332   N376      1.48728  1_655   S
    C332   C276      1.51693      .   S
    O434   La9       2.46001      .   S
    O436   La11      2.46011      .   S
    O432   La7       2.46010      .   S
    O438   La13      2.46001      .   S
    O444   La7       2.55403      .   S
    O442   La13      2.55272  1_455   S
    O440   La11      2.55271  1_455   S
    O446   La9       2.55294      .   S
    N378   C322      1.48443      .   S
    N378   La13      2.96760  1_455   S
    N382   C326      1.48444      .   S
    N382   La9       2.96773      .   S
    N376   C320      1.48434      .   S
    N376   La11      2.96689  1_455   S
    N380   C324      1.48424      .   S
    N380   La7       2.96688      .   S
    H199   C326      1.10783      .   S
    H195   C322      1.10784      .   S
    H197   C324      1.10773      .   S
    H193   C320      1.10771      .   S
    La32   N364      2.96760  1_455   S
    La32   O404      2.55317  1_455   S
    La32   O392      2.45956      .   S
    La32   O474      2.48035  1_545   S
    La3    N360      2.96777      .   S
    La3    O400      2.55350      .   S
    La3    O396      2.45957      .   S
    La3    O478      2.48037  1_545   S
    La5    N362      2.96693      .   S
    La5    O402      2.55336      .   S
    La5    O398      2.45950      .   S
    La5    O476      2.48017      .   S
    La1    N366      2.96680  1_455   S
    La1    O209      2.55304  1_455   S
    La1    O394      2.45949      .   S
    La1    O472      2.48073      .   S
    H78    C278      1.09312      .   S
    H76    C276      1.09318      .   S
    H74    C274      1.09313      .   S
    H72    C272      1.09313      .   S
    C320   H185      1.09313      .   S
    C320   C280      1.51699      .   S
    C324   H189      1.09313      .   S
    C324   C284      1.51699      .   S
    C322   H187      1.09310      .   S
    C322   C282      1.51695      .   S
    C326   H191      1.09310      .   S
    C326   C286      1.51697      .   S
    C272   H80       1.10782      .   S
    C272   N360      1.48439      .   S
    C276   H84       1.10771      .   S
    C276   N364      1.48429      .   S
    C274   H82       1.10774      .   S
    C274   N362      1.48433      .   S
    C278   H86       1.10773      .   S
    C278   N366      1.48432      .   S
    La9    O462      2.45543      .   S
    La9    O466      2.59145      .   S
    La11   O456      2.45501  1_655   S
    La11   O468      2.59144      .   S
    La7    O460      2.45534      .   S
    La7    O464      2.59143      .   S
    La13   O458      2.45509  1_655   S
    La13   O470      2.59146      .   S
    N362   C286      1.48764      .   S
    N362   C134      1.48218      .   S
    N366   C282      1.48738  1_655   S
    N366   C270      1.48221      .   S
    N364   C280      1.48739  1_655   S
    N364   C136      1.48144      .   S
    N360   C284      1.48768      .   S
    N360   C132      1.48217      .   S
    O402   P17       1.56553      .   S
    O400   P15       1.56551      .   S
    O404   P19       1.56556      .   S
    O209   P21       1.56557      .   S
    O394   P17       1.53509      .   S
    O396   P19       1.53504      .   S
    O392   P15       1.53510      .   S
    O398   P21       1.53503      .   S
    C280   H96       1.09745      .   S
    C280   H88       1.10664      .   S
    C284   H104      1.09744      .   S
    C284   H92       1.10665      .   S
    C282   H98       1.09742      .   S
    C282   H90       1.10661      .   S
    C286   H106      1.09742      .   S
    C286   H94       1.10663      .   S
    O476   P44       1.55490      .   S
    O478   P46       1.55489      .   S
    O474   P42       1.55490      .   S
    O472   P40       1.55439      .   S
    O462   P46       1.52549      .   S
    O456   P40       1.52549      .   S
    O460   P44       1.52550      .   S
    O458   P42       1.52550      .   S
    P21    C270      1.84100      .   S
    P21    O406      1.54602      .   S
    P19    C136      1.84080      .   S
    P19    O215      1.54598      .   S
    P15    C132      1.84095      .   S
    P15    O211      1.54597      .   S
    P17    C134      1.84101      .   S
    P17    O213      1.54601      .   S
    C136   H68       1.10931      .   S
    C136   H56       1.10194  1_655   S
    C132   H64       1.10881      .   S
    C132   H60       1.10174      .   S
    C134   H66       1.10870      .   S
    C134   H62       1.10167      .   S
    C270   H70       1.10871      .   S
    C270   H58       1.10134  1_655   S
    P42    O466      1.53293      .   S
    P42    C338      1.84459      .   S
    P46    O470      1.53294      .   S
    P46    C342      1.84522      .   S
    P44    O468      1.53294      .   S
    P44    C340      1.84461      .   S
    P40    O464      1.53295      .   S
    P40    C336      1.84460      .   S
    H227   C342      1.09982      .   S
    H225   C340      1.09966      .   S
    H223   C338      1.09967      .   S
    H221   C336      1.09967      .   S
    C340   H233      1.09980      .   S
    C340   N388      1.49810      .   S
    C336   H229      1.09980      .   S
    C336   N384      1.49811      .   S
    C338   H231      1.09979      .   S
    C338   N386      1.49813      .   S
    C342   H235      1.09942      .   S
    C342   N390      1.49772      .   S
    H165   N390      1.15980  1_545   S
    H161   N386      1.15981  1_545   S
    H167   N388      1.15901      .   S
    H163   N384      1.15902      .   S
    H255   C354      1.09852      .   S
    H259   C358      1.08705      .   S
    H257   C356      1.08703      .   S
    H253   C352      1.08702      .   S
    N390   C358      1.48959      .   S
    N390   C348      1.49982  1_565   S
    N388   C356      1.48959      .   S
    N388   C350      1.49973      .   S
    N386   C354      1.49682      .   S
    N386   C344      1.49982  1_565   S
    N384   C352      1.48961      .   S
    N384   C346      1.49973      .   S
    H247   C346      1.09759      .   S
    H249   C348      1.09759      .   S
    H251   C350      1.09758      .   S
    H245   C344      1.09759      .   S
    C356   H266      1.10861      .   S
    C356   C301      1.52659      .   S
    C358   H268      1.10860      .   S
    C358   C303      1.52661      .   S
    C352   H262      1.10862      .   S
    C352   C297      1.52659      .   S
    C354   H264      1.10014      .   S
    C354   C299      1.51673      .   S
    H124   C297      1.09671      .   S
    H126   C299      1.09672      .   S
    H130   C303      1.09673      .   S
    H128   C301      1.09673      .   S
    C350   H244      1.09667      .   S
    C350   C311      1.51662      .   S
    C348   H242      1.09666      .   S
    C348   C309      1.51663      .   S
    C344   H238      1.09666      .   S
    C344   C305      1.51663      .   S
    C346   H240      1.09668      .   S
    C346   C307      1.51663      .   S
    H157   C309      1.10111      .   S
    H153   C305      1.10112      .   S
    H159   C311      1.10014      .   S
    H155   C307      1.10014      .   S
    C303   H144      1.09717      .   S
    C303   N373      1.49982  1_565   S
    C301   H142      1.09718      .   S
    C301   N375      1.49970      .   S
    C299   H140      1.09716      .   S
    C299   N369      1.49982  1_565   S
    C297   H138      1.09718      .   S
    C297   N371      1.49968      .   S
    C305   N369      1.49691      .   S
    C305   H146      1.09870      .   S
    C307   N371      1.49689      .   S
    C307   H148      1.09855      .   S
    C311   N375      1.49689      .   S
    C311   H152      1.09202      .   S
    C309   N373      1.49693      .   S
    C309   H150      1.09871      .   S
    N373   H55       1.15915  1_545   S
    N373   C293      1.49766      .   S
    N371   H49       1.15828      .   S
    N371   C291      1.49768      .   S
    N375   H53       1.15892      .   S
    N375   C295      1.49769      .   S
    N369   H51       1.15914  1_545   S
    N369   C289      1.49765      .   S
    H123   C295      1.10823      .   S
    H121   C293      1.10824      .   S
    H119   C291      1.09935      .   S
    H117   C289      1.09936      .   S
    C295   H115      1.09984      .   S
    C295   P30       1.84531      .   S
    C293   H113      1.09984      .   S
    C293   P28       1.84532      .   S
    C289   H109      1.09984      .   S
    C289   P24       1.84533      .   S
    C291   H111      1.09984      .   S
    C291   P26       1.84533      .   S
    O451   P35       1.54635      .   S
    O449   P33       1.54611      .   S
    O453   P37       1.54589      .   S
    O455   P39       1.54591      .   S
    H172   C319      1.10169      .   S
    H174   C313      1.10126  1_655   S
    H176   C315      1.10135  1_655   S
    H170   C317      1.10076      .   S
    H182   C317      1.10797      .   S
    H178   C313      1.10872      .   S
    H180   C315      1.10875      .   S
    H184   C319      1.10873      .   S
    O417   P24       1.53289      .   S
    O417   La0       2.59182      .   S
    O419   P26       1.53289      .   S
    O419   La2       2.59181      .   S
    O421   P28       1.53290      .   S
    O421   La4       2.59181      .   S
    O423   P30       1.53290      .   S
    O423   La6       2.59181      .   S
    P28    O413      1.52554      .   S
    P28    O429      1.55448      .   S
    P24    O409      1.52554      .   S
    P24    O425      1.55448      .   S
    P26    O411      1.52553      .   S
    P26    O427      1.55448      .   S
    P30    O415      1.52522      .   S
    P30    O431      1.55447      .   S
    C317   P37       1.84113      .   S
    C317   N381      1.48341      .   S
    C313   P33       1.84094      .   S
    C313   N377      1.48230      .   S
    C319   P39       1.84091      .   S
    C319   N383      1.48214      .   S
    C315   P35       1.84094      .   S
    C315   N379      1.48218      .   S
    P39    O439      1.53515      .   S
    P39    O447      1.56565      .   S
    P37    O437      1.53516      .   S
    P37    O445      1.56563      .   S
    P35    O435      1.53509      .   S
    P35    O443      1.56453      .   S
    P33    O433      1.53510      .   S
    P33    O441      1.56557      .   S
    H204   C331      1.10663      .   S
    H202   C329      1.10668      .   S
    H206   C333      1.10667      .   S
    H100   C335      1.10676      .   S
    O415   La2       2.45558  1_655   S
    O409   La4       2.45512      .   S
    O413   La0       2.45478  1_655   S
    O411   La6       2.45519      .   S
    H216   C331      1.09737      .   S
    H218   C333      1.09744      .   S
    H102   C329      1.09742      .   S
    H220   C335      1.09749      .   S
    O427   La8       2.48055      .   S
    O425   La10      2.48081  1_545   S
    O429   La14      2.48080  1_545   S
    O431   La12      2.48054      .   S
    C331   N383      1.48766      .   S
    C331   C275      1.51693      .   S
    C333   N377      1.48736  1_655   S
    C333   C277      1.51700      .   S
    C335   N379      1.48729  1_655   S
    C335   C279      1.51621      .   S
    C329   N381      1.48766      .   S
    C329   C273      1.51700      .   S
    O439   La14      2.46010      .   S
    O437   La12      2.46004      .   S
    O433   La8       2.45990      .   S
    O435   La10      2.45995      .   S
    O443   La14      2.55369  1_455   S
    O441   La12      2.55260  1_455   S
    O445   La8       2.55293      .   S
    O447   La10      2.55293      .   S
    N381   C325      1.48433      .   S
    N381   La8       2.96760      .   S
    N377   C321      1.48434      .   S
    N377   La12      2.96745  1_455   S
    N383   C327      1.48430      .   S
    N383   La10      2.96702      .   S
    N379   C323      1.48430      .   S
    N379   La14      2.96689  1_455   S
    H200   C327      1.10825      .   S
    H194   C321      1.10774      .   S
    H196   C323      1.10783      .   S
    H198   C325      1.10772      .   S
    La0    N365      2.96695  1_455   S
    La0    O208      2.55303  1_455   S
    La0    O393      2.45963      .   S
    La0    O475      2.48088  1_545   S
    La2    N367      2.96749  1_455   S
    La2    O210      2.55304  1_455   S
    La2    O395      2.45956      .   S
    La2    O473      2.48063      .   S
    La4    N361      2.96706      .   S
    La4    O401      2.55336      .   S
    La4    O397      2.45948      .   S
    La4    O479      2.48088  1_545   S
    La6    N363      2.96723      .   S
    La6    O403      2.55338      .   S
    La6    O399      2.45940      .   S
    La6    O477      2.48063      .   S
    H79    C279      1.09282      .   S
    H77    C277      1.09314      .   S
    H75    C275      1.09310      .   S
    H73    C273      1.09315      .   S
    C323   H188      1.09315      .   S
    C323   C283      1.51701      .   S
    C327   H192      1.09316      .   S
    C327   C287      1.51703      .   S
    C325   H190      1.09320      .   S
    C325   C285      1.51696      .   S
    C321   H186      1.09317      .   S
    C321   C281      1.51693      .   S
    C279   H87       1.10830      .   S
    C279   N367      1.48483      .   S
    C275   H83       1.10788      .   S
    C275   N363      1.48396      .   S
    C273   H81       1.10771      .   S
    C273   N361      1.48430      .   S
    C277   H85       1.10769      .   S
    C277   N365      1.48429      .   S
    La10   O463      2.45535      .   S
    La10   O467      2.59143      .   S
    La14   O459      2.45501  1_655   S
    La14   O471      2.59146      .   S
    La12   O457      2.45507  1_655   S
    La12   O469      2.59145      .   S
    La8    O461      2.45541      .   S
    La8    O465      2.59144      .   S
    N363   C287      1.48793      .   S
    N363   C135      1.48290      .   S
    N365   C281      1.48731  1_655   S
    N365   C269      1.48224      .   S
    N361   C285      1.48757      .   S
    N361   C133      1.48220      .   S
    N367   C283      1.48737  1_655   S
    N367   C271      1.48218      .   S
    O403   P18       1.56562      .   S
    O210   P22       1.56565      .   S
    O401   P16       1.56562      .   S
    O208   P20       1.56567      .   S
    O397   P20       1.53516      .   S
    O399   P22       1.53518      .   S
    O393   P16       1.53511      .   S
    O395   P18       1.53511      .   S
    C281   H97       1.09742      .   S
    C281   H89       1.10673      .   S
    C283   H99       1.09745      .   S
    C283   H91       1.10666      .   S
    C285   H105      1.09649      .   S
    C285   H93       1.10648      .   S
    C287   H107      1.09746      .   S
    C287   H95       1.10668      .   S
    O473   P41       1.55439      .   S
    O475   P43       1.55440      .   S
    O477   P45       1.55439      .   S
    O479   P47       1.55440      .   S
    O459   P43       1.52549      .   S
    O457   P41       1.52550      .   S
    O461   P45       1.52550      .   S
    O463   P47       1.52548      .   S
    P20    C269      1.84098      .   S
    P20    O405      1.54580      .   S
    P22    C271      1.84094      .   S
    P22    O407      1.54578      .   S
    P18    C135      1.84095      .   S
    P18    O214      1.54599      .   S
    P16    C133      1.84098      .   S
    P16    O212      1.54429      .   S
    C135   H67       1.10769      .   S
    C135   H63       1.10173      .   S
    C133   H65       1.10870      .   S
    C133   H61       1.10086      .   S
    C269   H69       1.10872      .   S
    C269   H57       1.10051  1_655   S
    C271   H71       1.10870      .   S
    C271   H59       1.10139  1_655   S
    P47    O471      1.53293      .   S
    P47    C343      1.84542      .   S
    P41    O465      1.53294      .   S
    P41    C337      1.84540      .   S
    P43    O467      1.53293      .   S
    P43    C339      1.84541      .   S
    P45    O469      1.53294      .   S
    P45    C341      1.84542      .   S
    H226   C341      1.09992      .   S
    H228   C343      1.09993      .   S
    H224   C339      1.09983      .   S
    H222   C337      1.09983      .   S
    C337   H230      1.09941      .   S
    C337   N385      1.49761      .   S
    C339   H232      1.09942      .   S
    C339   N387      1.49757      .   S
    C341   H234      1.09942      .   S
    C341   N389      1.49758      .   S
    C343   H236      1.09942      .   S
    C343   N391      1.49757      .   S
    H162   N387      1.15921  1_545   S
    H164   N385      1.15898      .   S
    H166   N391      1.15920  1_545   S
    H168   N389      1.15898      .   S
    H256   C355      1.09869      .   S
    H254   C353      1.09870      .   S
    H260   C359      1.09870      .   S
    H258   C357      1.09870      .   S
    N385   C353      1.49691      .   S
    N385   C347      1.49971      .   S
    N387   C355      1.49695      .   S
    N387   C345      1.49985  1_565   S
    N389   C357      1.49689      .   S
    N389   C351      1.49971      .   S
    N391   C359      1.49694      .   S
    N391   C349      1.49984  1_565   S
    H252   C351      1.09757      .   S
    H250   C349      1.09757      .   S
    H248   C347      1.09757      .   S
    H246   C345      1.09756      .   S
    O400   La9       2.60288  1_545   S
    O401   La10      2.60297  1_545   S
    O402   La7       2.60270      .   S
    O403   La8       2.60262      .   S
    O404   La13      2.60284  1_545   S
    O208   La14      2.60292  1_545   S
    O209   La11      2.60267      .   S
    O210   La12      2.60259      .   S
    O424   La32      2.58789      .   S
    O425   La0       2.58798      .   S
    O426   La1       2.58810      .   S
    O427   La2       2.58789      .   S
    O428   La3       2.58788      .   S
    O429   La4       2.58797      .   S
    O430   La5       2.58809      .   S
    O431   La6       2.58786      .   S
    O440   La1       2.60258      .   S
    O441   La2       2.60242      .   S
    O442   La32      2.60267  1_565   S
    O443   La0       2.60351  1_565   S
    O444   La5       2.60328      .   S
    O445   La6       2.60247      .   S
    O446   La3       2.60262  1_565   S
    O447   La4       2.60278  1_565   S
    O472   La7       2.58813      .   S
    O473   La8       2.58803      .   S
    O474   La9       2.58768      .   S
    O475   La10      2.58814      .   S
    O476   La11      2.58784      .   S
    O477   La12      2.58805      .   S
    O478   La13      2.58769      .   S
    O479   La14      2.58815      .   S
