# CIF file generated by openbabel 2.4.90, see http://openbabel.sf.net
data_I
_chemical_name_common ''
_cell_length_a 11.706
_cell_length_b 20.742
_cell_length_c 23.396
_cell_angle_alpha 86.75
_cell_angle_beta 87.624
_cell_angle_gamma 83.614
_space_group_name_H-M_alt 'P 1'
_space_group_name_Hall 'P 1'
loop_
    _symmetry_equiv_pos_as_xyz
    x,y,z
loop_
    _atom_site_label
    _atom_site_type_symbol
    _atom_site_fract_x
    _atom_site_fract_y
    _atom_site_fract_z
    _atom_site_occupancy
    N0      N    0.49998   0.74999   0.24999   1.000
    N1      N    0.24999   0.49999   0.49997   1.000
    N2      N    0.99998   0.25000   0.24999   1.000
    N3      N    0.49998   0.25000   0.24999   1.000
    N4      N    0.24999   0.99999   0.49999   1.000
    N5      N    0.49999   0.74999   0.75000   1.000
    N6      N    0.75000   0.99999   0.49995   1.000
    N7      N    0.99998   0.74999   0.24999   1.000
    N8      N    0.75000   0.99999   1.00000   1.000
    N9      N    0.49999   0.24999   0.74999   1.000
    N10     N    0.24999   0.49999   1.00000   1.000
    N11     N    0.75000   0.49999   0.49994   1.000
    N12     N    0.99999   0.24999   0.75000   1.000
    N13     N    0.24999   0.99999   1.00000   1.000
    N14     N    0.75000   0.49999   1.00000   1.000
    N15     N    0.99999   0.74999   0.75000   1.000
    Zr16    Zr   0.88933   0.42870   0.26448   1.000
    O17     O    0.99966   0.44262   0.33126   1.000
    O18     O    0.84415   0.45754   0.18997   1.000
    O19     O    0.77514   0.37873   0.25303   1.000
    O20     O    0.92324   0.52288   0.26502   1.000
    Zr21    Zr   0.38932   0.92869   0.76448   1.000
    O22     O    0.27514   0.87872   0.75304   1.000
    O23     O    0.34414   0.95753   0.68997   1.000
    O24     O    0.49965   0.94261   0.83127   1.000
    O25     O    0.42323   0.02287   0.76502   1.000
    Zr26    Zr   0.61067   0.07129   0.23551   1.000
    O27     O    0.72485   0.12126   0.24695   1.000
    O28     O    0.50033   0.05737   0.16872   1.000
    O29     O    0.65585   0.04244   0.31001   1.000
    O30     O    0.57675   0.97711   0.23498   1.000
    Zr31    Zr   0.38930   0.92870   0.26448   1.000
    O32     O    0.42322   0.02288   0.26501   1.000
    O33     O    0.34413   0.95754   0.18997   1.000
    O34     O    0.49964   0.94261   0.33126   1.000
    O35     O    0.27512   0.87873   0.25303   1.000
    Zr36    Zr   0.38931   0.42870   0.76448   1.000
    O37     O    0.42323   0.52288   0.76502   1.000
    O38     O    0.49965   0.44261   0.83127   1.000
    O39     O    0.34413   0.45754   0.68996   1.000
    O40     O    0.27513   0.37873   0.75304   1.000
    Zr41    Zr   0.88933   0.42870   0.76448   1.000
    O42     O    0.84415   0.45754   0.68996   1.000
    O43     O    0.92324   0.52288   0.76502   1.000
    O44     O    0.77515   0.37873   0.75303   1.000
    O45     O    0.99966   0.44262   0.83127   1.000
    Zr46    Zr   0.61067   0.07129   0.73552   1.000
    O47     O    0.50033   0.05737   0.66873   1.000
    O48     O    0.57675   0.97710   0.73499   1.000
    O49     O    0.65585   0.04244   0.81003   1.000
    O50     O    0.72485   0.12126   0.74696   1.000
    Zr51    Zr   0.61066   0.57129   0.23552   1.000
    O52     O    0.65584   0.54244   0.31001   1.000
    O53     O    0.57674   0.47711   0.23497   1.000
    O54     O    0.72484   0.62126   0.24696   1.000
    O55     O    0.50033   0.55737   0.16873   1.000
    Zr56    Zr   0.11065   0.07129   0.23551   1.000
    O57     O    0.15583   0.04244   0.31002   1.000
    O58     O    0.22483   0.12126   0.24695   1.000
    O59     O    0.07673   0.97710   0.23498   1.000
    O60     O    0.00033   0.05737   0.16872   1.000
    Zr61    Zr   0.11064   0.57129   0.23552   1.000
    O62     O    0.15583   0.54244   0.31002   1.000
    O63     O    0.00032   0.55737   0.16873   1.000
    O64     O    0.07673   0.47711   0.23498   1.000
    O65     O    0.22483   0.62126   0.24696   1.000
    Zr66    Zr   0.88932   0.92870   0.26448   1.000
    O67     O    0.99965   0.94261   0.33127   1.000
    O68     O    0.92323   0.02288   0.26502   1.000
    O69     O    0.84414   0.95754   0.18997   1.000
    O70     O    0.77514   0.87873   0.25303   1.000
    Zr71    Zr   0.88934   0.92869   0.76448   1.000
    O72     O    0.77515   0.87872   0.75303   1.000
    O73     O    0.99966   0.94261   0.83127   1.000
    O74     O    0.84415   0.95753   0.68996   1.000
    O75     O    0.92325   0.02287   0.76502   1.000
    Zr76    Zr   0.61067   0.57128   0.73552   1.000
    O77     O    0.72485   0.62125   0.74696   1.000
    O78     O    0.50034   0.55736   0.66872   1.000
    O79     O    0.65585   0.54244   0.81003   1.000
    O80     O    0.57675   0.47710   0.73498   1.000
    Zr81    Zr   0.11065   0.57128   0.73552   1.000
    O82     O    0.00033   0.55736   0.66871   1.000
    O83     O    0.22484   0.62125   0.74696   1.000
    O84     O    0.15584   0.54244   0.81003   1.000
    O85     O    0.07674   0.47710   0.73499   1.000
    Zr86    Zr   0.11065   0.07129   0.73552   1.000
    O87     O    0.00033   0.05737   0.66872   1.000
    O88     O    0.15583   0.04244   0.81003   1.000
    O89     O    0.07674   0.97710   0.73498   1.000
    O90     O    0.22484   0.12126   0.74696   1.000
    Zr91    Zr   0.38931   0.42870   0.26448   1.000
    O92     O    0.49965   0.44261   0.33125   1.000
    O93     O    0.27513   0.37873   0.25303   1.000
    O94     O    0.34413   0.45754   0.18997   1.000
    O95     O    0.42323   0.52288   0.26502   1.000
    O96     O    0.83481   0.44675   0.33093   1.000
    O97     O    0.66519   0.55323   0.66904   1.000
    O98     O    0.06449   0.62132   0.74612   1.000
    O99     O    0.93550   0.87865   0.75388   1.000
    O100    O    0.56449   0.12133   0.24611   1.000
    O101    O    0.66519   0.05323   0.16904   1.000
    O102    O    0.66519   0.05323   0.66904   1.000
    O103    O    0.56449   0.12133   0.74612   1.000
    O104    O    0.43549   0.87865   0.75389   1.000
    O105    O    0.56450   0.62132   0.74611   1.000
    O106    O    0.93549   0.37866   0.25388   1.000
    O107    O    0.16517   0.55322   0.66905   1.000
    O108    O    0.83480   0.94675   0.33093   1.000
    O109    O    0.66518   0.55323   0.16905   1.000
    O110    O    0.56448   0.62133   0.24611   1.000
    O111    O    0.83481   0.94674   0.83095   1.000
    O112    O    0.06448   0.12133   0.24611   1.000
    O113    O    0.16517   0.05323   0.16905   1.000
    O114    O    0.43549   0.37866   0.75388   1.000
    O115    O    0.33480   0.44675   0.83095   1.000
    O116    O    0.33480   0.94674   0.83095   1.000
    O117    O    0.33479   0.94675   0.33094   1.000
    O118    O    0.16517   0.05323   0.66905   1.000
    O119    O    0.06447   0.62133   0.24611   1.000
    O120    O    0.16517   0.55323   0.16905   1.000
    O121    O    0.83481   0.44675   0.83095   1.000
    O122    O    0.93550   0.37866   0.75389   1.000
    O123    O    0.93549   0.87865   0.25388   1.000
    O124    O    0.43548   0.87865   0.25388   1.000
    O125    O    0.06448   0.12133   0.74612   1.000
    O126    O    0.33480   0.44675   0.33094   1.000
    O127    O    0.43548   0.37866   0.25388   1.000
loop_
    _geom_bond_atom_site_label_1
    _geom_bond_atom_site_label_2
    _geom_bond_distance
    _geom_bond_site_symmetry_2
    _ccdc_geom_bond_type
    Zr16   O17       2.11985      .   S
    N1     O17       5.27736  1_455   S
    Zr16   O18       1.88794      .   S
    N14    O18       4.63581  1_556   S
    Zr16   O19       1.81713      .   S
    N3     O19       4.41186      .   S
    Zr16   O20       2.03700      .   S
    N7     O20       4.88357      .   S
    Zr21   O22       1.81706      .   S
    N15    O22       4.41170  1_655   S
    Zr21   O23       1.88795      .   S
    N4     O23       4.63591      .   S
    Zr21   O24       2.12005      .   S
    N8     O24       5.27782      .   S
    Zr21   O25       2.03712  1_565   S
    N9     O25       4.88377      .   S
    Zr26   O27       1.81707      .   S
    N2     O27       4.41160      .   S
    Zr26   O28       2.12003      .   S
    N13    O28       5.27782  1_566   S
    Zr26   O29       1.88764      .   S
    N6     O29       4.63517  1_565   S
    Zr26   O30       2.03708  1_545   S
    N0     O30       4.88368      .   S
    Zr31   O32       2.03709  1_565   S
    N3     O32       4.88373      .   S
    Zr31   O33       1.88793      .   S
    N13    O33       4.63577  1_556   S
    Zr31   O34       2.11985      .   S
    N6     O34       5.27719      .   S
    Zr31   O35       1.81706      .   S
    N7     O35       4.41172  1_655   S
    Zr36   O37       2.03699      .   S
    N5     O37       4.88354      .   S
    Zr36   O38       2.12005      .   S
    N14    O38       5.27780      .   S
    Zr36   O39       1.88803      .   S
    N1     O39       4.63621      .   S
    Zr36   O40       1.81706      .   S
    N12    O40       4.41173  1_655   S
    Zr41   O42       1.88824      .   S
    N11    O42       4.63687      .   S
    Zr41   O43       2.03696      .   S
    N15    O43       4.88348      .   S
    Zr41   O44       1.81712      .   S
    N9     O44       4.41188      .   S
    Zr41   O45       2.11995      .   S
    N10    O45       5.27766  1_455   S
    Zr46   O47       2.12009      .   S
    N4     O47       5.27802  1_565   S
    Zr46   O48       2.03713  1_545   S
    N5     O48       4.88378      .   S
    Zr46   O49       1.88793      .   S
    N8     O49       4.63572  1_565   S
    Zr46   O50       1.81707      .   S
    N12    O50       4.41157      .   S
    Zr51   O52       1.88750      .   S
    N11    O52       4.63485      .   S
    Zr51   O53       2.03705      .   S
    N3     O53       4.88359      .   S
    Zr51   O54       1.81707      .   S
    N7     O54       4.41158      .   S
    Zr51   O55       2.12007      .   S
    N10    O55       5.27789  1_556   S
    Zr56   O57       1.88789      .   S
    N4     O57       4.63595  1_565   S
    Zr56   O58       1.81712      .   S
    N3     O58       4.41174      .   S
    Zr56   O59       2.03706  1_545   S
    N7     O59       4.88363  1_655   S
    Zr56   O60       2.11994      .   S
    N8     O60       5.27771  1_666   S
    Zr61   O62       1.88782      .   S
    N1     O62       4.63539      .   S
    Zr61   O63       2.11998      .   S
    N14    O63       5.27776  1_656   S
    Zr61   O64       2.03701      .   S
    N2     O64       4.88353  1_655   S
    Zr61   O65       1.81712      .   S
    N0     O65       4.41172      .   S
    Zr66   O67       2.11996      .   S
    N4     O67       5.27769  1_455   S
    Zr66   O68       2.03707  1_565   S
    N2     O68       4.88367      .   S
    Zr66   O69       1.88794      .   S
    N8     O69       4.63581  1_556   S
    Zr66   O70       1.81711      .   S
    N0     O70       4.41186      .   S
    Zr71   O72       1.81712      .   S
    N5     O72       4.41184      .   S
    Zr71   O73       2.11996      .   S
    N13    O73       5.27771  1_455   S
    Zr71   O74       1.88820      .   S
    N6     O74       4.63669      .   S
    Zr71   O75       2.03710  1_565   S
    N12    O75       4.88371      .   S
    Zr76   O77       1.81706      .   S
    N15    O77       4.41159      .   S
    Zr76   O78       2.12018      .   S
    N1     O78       5.27825      .   S
    Zr76   O79       1.88791      .   S
    N14    O79       4.63572      .   S
    Zr76   O80       2.03701      .   S
    N9     O80       4.88356      .   S
    Zr81   O82       2.12037      .   S
    N11    O82       5.27853  1_655   S
    Zr81   O83       1.81711      .   S
    N5     O83       4.41173      .   S
    Zr81   O84       1.88791      .   S
    N10    O84       4.63573      .   S
    Zr81   O85       2.03698      .   S
    N12    O85       4.88350  1_655   S
    Zr86   O87       2.12020      .   S
    N6     O87       5.27852  1_665   S
    Zr86   O88       1.88794      .   S
    N13    O88       4.63576  1_565   S
    Zr86   O89       2.03713  1_545   S
    N15    O89       4.88372  1_655   S
    Zr86   O90       1.81711      .   S
    N9     O90       4.41170      .   S
    Zr91   O92       2.11977      .   S
    N11    O92       5.27697      .   S
    Zr91   O93       1.81708      .   S
    N2     O93       4.41171  1_655   S
    Zr91   O94       1.88794      .   S
    N10    O94       4.63581  1_556   S
    Zr91   O95       2.03703      .   S
    N0     O95       4.88363      .   S
    N11    O96       4.21492      .   S
    Zr16   O96       1.70147      .   S
    N11    O97       4.21698      .   S
    Zr76   O97       1.70219      .   S
    N15    O98       2.69708  1_655   S
    Zr81   O98       1.15080      .   S
    N15    O99       2.69698      .   S
    Zr71   O99       1.15074      .   S
    Zr26   O100      1.15086      .   S
    N3     O100      2.69712      .   S
    Zr26   O101      1.70182      .   S
    N8     O101      4.21589  1_566   S
    Zr46   O102      1.70215      .   S
    N6     O102      4.21684  1_565   S
    Zr46   O103      1.15076      .   S
    N9     O103      2.69704      .   S
    N5     O104      2.69700      .   S
    Zr21   O104      1.15074      .   S
    N5     O105      2.69709      .   S
    Zr76   O105      1.15081      .   S
    Zr16   O106      1.15071      .   S
    N2     O106      2.69697      .   S
    Zr81   O107      1.70200      .   S
    N1     O107      4.21636      .   S
    N6     O108      4.21510      .   S
    Zr66   O108      1.70152      .   S
    Zr51   O109      1.70191      .   S
    N14    O109      4.21601  1_556   S
    Zr51   O110      1.15076      .   S
    N0     O110      2.69706      .   S
    Zr71   O111      1.70186      .   S
    N8     O111      4.21590      .   S
    Zr56   O112      1.15083      .   S
    N2     O112      2.69712  1_655   S
    Zr56   O113      1.70182      .   S
    N13    O113      4.21587  1_566   S
    Zr36   O114      1.15082      .   S
    N9     O114      2.69706      .   S
    Zr36   O115      1.70183      .   S
    N10    O115      4.21585      .   S
    Zr21   O116      1.70186      .   S
    N13    O116      4.21592      .   S
    N4     O117      4.21585      .   S
    Zr31   O117      1.70175      .   S
    N4     O118      4.21609  1_565   S
    Zr86   O118      1.70192      .   S
    Zr61   O119      1.15073      .   S
    N7     O119      2.69706  1_655   S
    Zr61   O120      1.70192      .   S
    N10    O120      4.21603  1_556   S
    Zr41   O121      1.70184      .   S
    N14    O121      4.21587      .   S
    Zr41   O122      1.15077      .   S
    N12    O122      2.69704      .   S
    Zr66   O123      1.15079      .   S
    N7     O123      2.69702      .   S
    Zr31   O124      1.15082      .   S
    N0     O124      2.69703      .   S
    Zr86   O125      1.15074      .   S
    N12    O125      2.69704  1_655   S
    N1     O126      4.21548      .   S
    Zr91   O126      1.70172      .   S
    N3     O127      2.69698      .   S
    Zr91   O127      1.15076      .   S
