# CIF file generated by openbabel 2.4.90, see http://openbabel.sf.net
data_I
_chemical_name_common ''
_cell_length_a 10.009
_cell_length_b 13.154
_cell_length_c 15.547
_cell_angle_alpha 89.998
_cell_angle_beta 89.946
_cell_angle_gamma 89.972
_space_group_name_H-M_alt 'P 1'
_space_group_name_Hall 'P 1'
loop_
    _symmetry_equiv_pos_as_xyz
    x,y,z
loop_
    _atom_site_label
    _atom_site_type_symbol
    _atom_site_fract_x
    _atom_site_fract_y
    _atom_site_fract_z
    _atom_site_occupancy
    H0      H    0.53058   0.97472   0.35718   1.000
    H1      H    0.78079   0.04155   0.33785   1.000
    H2      H    0.66036   0.77795   0.46678   1.000
    H3      H    0.50461   0.86293   0.58489   1.000
    H4      H    0.97917   0.02746   0.85629   1.000
    H5      H    0.72912   0.96065   0.83663   1.000
    H6      H    0.84780   0.22540   0.96684   1.000
    H7      H    0.00388   0.14141   0.08503   1.000
    H8      H    0.47746   0.47523   0.14435   1.000
    H9      H    0.22731   0.54182   0.16487   1.000
    H10     H    0.34789   0.27677   0.03665   1.000
    H11     H    0.50422   0.36105   0.91868   1.000
    H12     H    0.03099   0.52632   0.64514   1.000
    H13     H    0.28133   0.45978   0.66521   1.000
    H14     H    0.16388   0.72474   0.53735   1.000
    H15     H    0.00694   0.64196   0.41909   1.000
    C16     C    0.46681   0.11138   0.28972   1.000
    C17     C    0.55953   0.04478   0.32507   1.000
    C18     C    0.69149   0.07957   0.31475   1.000
    C19     C    0.69768   0.17191   0.27162   1.000
    C20     C    0.31998   0.10268   0.28828   1.000
    C21     C    0.81732   0.23215   0.25201   1.000
    C22     C    0.79662   0.90492   0.48453   1.000
    C23     C    0.68199   0.84829   0.50078   1.000
    C24     C    0.59967   0.89354   0.56323   1.000
    C25     C    0.65295   0.98374   0.59465   1.000
    C26     C    0.89562   0.88313   0.41698   1.000
    C27     C    0.59445   0.04980   0.66129   1.000
    C28     C    0.04343   0.89106   0.78859   1.000
    C29     C    0.95042   0.95751   0.82398   1.000
    C30     C    0.81854   0.92274   0.81347   1.000
    C31     C    0.81262   0.83065   0.76997   1.000
    C32     C    0.19024   0.90038   0.78782   1.000
    C33     C    0.69326   0.77023   0.75029   1.000
    C34     C    0.71279   0.09754   0.98442   1.000
    C35     C    0.82672   0.15490   0.00000   1.000
    C36     C    0.90925   0.11021   0.06333   1.000
    C37     C    0.85693   0.01966   0.09472   1.000
    C38     C    0.61352   0.11862   0.91691   1.000
    C39     C    0.91563   0.95388   0.16144   1.000
    C40     C    0.54154   0.61073   0.21331   1.000
    C41     C    0.44866   0.54480   0.17731   1.000
    C42     C    0.31666   0.57942   0.18830   1.000
    C43     C    0.31051   0.67098   0.23259   1.000
    C44     C    0.68847   0.60213   0.21422   1.000
    C45     C    0.19133   0.73164   0.25287   1.000
    C46     C    0.21252   0.40448   0.01906   1.000
    C47     C    0.32673   0.34729   0.00276   1.000
    C48     C    0.40939   0.39215   0.94032   1.000
    C49     C    0.35693   0.48267   0.90893   1.000
    C50     C    0.11328   0.38345   0.08670   1.000
    C51     C    0.41600   0.54855   0.84237   1.000
    C52     C    0.96738   0.39093   0.71445   1.000
    C53     C    0.06002   0.45687   0.67815   1.000
    C54     C    0.19200   0.42230   0.68888   1.000
    C55     C    0.19823   0.33077   0.73321   1.000
    C56     C    0.82059   0.39961   0.71559   1.000
    C57     C    0.31786   0.27073   0.75324   1.000
    C58     C    0.29782   0.59625   0.51946   1.000
    C59     C    0.18426   0.65419   0.50329   1.000
    C60     C    0.10127   0.61010   0.44074   1.000
    C61     C    0.15279   0.51931   0.40917   1.000
    C62     C    0.39729   0.61697   0.58688   1.000
    C63     C    0.09305   0.45421   0.34231   1.000
    S64     S    0.54156   0.21626   0.24343   1.000
    S65     S    0.80368   0.01359   0.54675   1.000
    S66     S    0.96900   0.78647   0.74178   1.000
    S67     S    0.70673   0.98884   0.04668   1.000
    S68     S    0.46681   0.71480   0.26100   1.000
    S69     S    0.20642   0.51327   0.95688   1.000
    S70     S    0.04214   0.28688   0.76202   1.000
    S71     S    0.30280   0.48757   0.45707   1.000
    O72     O    0.26807   0.02675   0.32664   1.000
    O73     O    0.79975   0.31510   0.21100   1.000
    O74     O    0.98223   0.95216   0.39998   1.000
    O75     O    0.48280   0.02156   0.69308   1.000
    O76     O    0.25835   0.17283   0.24785   1.000
    O77     O    0.88474   0.79785   0.37862   1.000
    O78     O    0.66024   0.12957   0.68190   1.000
    O79     O    0.92954   0.19638   0.27788   1.000
    O80     O    0.24003   0.97697   0.82644   1.000
    O81     O    0.71107   0.68848   0.70756   1.000
    O82     O    0.52824   0.04860   0.89989   1.000
    O83     O    0.02698   0.98226   0.19340   1.000
    O84     O    0.25400   0.83099   0.74781   1.000
    O85     O    0.62251   0.20409   0.87872   1.000
    O86     O    0.84984   0.87395   0.18187   1.000
    O87     O    0.58103   0.80430   0.77783   1.000
    O88     O    0.74038   0.52685   0.17480   1.000
    O89     O    0.21025   0.81318   0.29573   1.000
    O90     O    0.02786   0.45346   0.10372   1.000
    O91     O    0.52747   0.52001   0.81045   1.000
    O92     O    0.75040   0.67134   0.25559   1.000
    O93     O    0.12237   0.29802   0.12499   1.000
    O94     O    0.35065   0.62875   0.82200   1.000
    O95     O    0.07869   0.69814   0.22580   1.000
    O96     O    0.76899   0.47538   0.67681   1.000
    O97     O    0.30061   0.18896   0.79595   1.000
    O98     O    0.48267   0.54696   0.60386   1.000
    O99     O    0.98288   0.48461   0.30992   1.000
    O100    O    0.75864   0.32984   0.75629   1.000
    O101    O    0.38847   0.70246   0.62517   1.000
    O102    O    0.15655   0.37314   0.32216   1.000
    O103    O    0.42985   0.30547   0.72586   1.000
loop_
    _geom_bond_atom_site_label_1
    _geom_bond_atom_site_label_2
    _geom_bond_distance
    _geom_bond_site_symmetry_2
    _ccdc_geom_bond_type
    C35    C36       1.41362      .   S
    C35    H6        1.08178  1_554   S
    C35    C34       1.38913  1_554   S
    C47    C46       1.39128      .   S
    C47    H10       1.08761      .   S
    C47    C48       1.40498  1_554   S
    C46    C50       1.47220      .   S
    C46    S69       1.72794  1_554   S
    S67    C37       1.72767  1_565   S
    S67    C34       1.72768  1_564   S
    C36    H7        1.08643  1_655   S
    C36    C37       1.38973      .   S
    C50    O90       1.28367      .   S
    C50    O93       1.27479      .   S
    C37    C39       1.47315  1_545   S
    H8     C41       1.08747      .   S
    C39    O86       1.28076      .   S
    C39    O83       1.27668  1_655   S
    H9     C42       1.08543      .   S
    O88    C44       1.27479      .   S
    C41    C42       1.40748      .   S
    C41    C40       1.38976      .   S
    C42    C43       1.38871      .   S
    O73    C21       1.27586      .   S
    C40    C44       1.47495      .   S
    C40    S68       1.72661      .   S
    C44    O92       1.27590      .   S
    O95    C45       1.28201      .   S
    C43    C45       1.46876      .   S
    C43    S68       1.72531      .   S
    S64    C19       1.72468      .   S
    S64    C16       1.72651      .   S
    O76    C20       1.27572      .   S
    C21    C19       1.46806      .   S
    C21    O79       1.28261      .   S
    C45    O89       1.27713      .   S
    C19    C18       1.38884      .   S
    C20    C16       1.47426      .   S
    C20    O72       1.27400      .   S
    C16    C17       1.38955      .   S
    O99    C63       1.27678  1_655   S
    C18    C17       1.40702      .   S
    C18    H1        1.08542      .   S
    O102   C63       1.27999      .   S
    C17    H0        1.08742  1_545   S
    C63    C61       1.47406      .   S
    O77    C26       1.27521      .   S
    O74    C26       1.28305      .   S
    C61    C60       1.38994      .   S
    C61    S71       1.72767      .   S
    C26    C22       1.47132      .   S
    H15    C60       1.08656      .   S
    C60    C59       1.40499      .   S
    S71    C58       1.72829      .   S
    H2     C23       1.08758      .   S
    C22    C23       1.39116      .   S
    C22    S65       1.72748  1_565   S
    C23    C24       1.40489      .   S
    C59    C58       1.39125      .   S
    C59    H14       1.08762      .   S
    C58    C62       1.47193      .   S
    S65    C25       1.72721  1_545   S
    C24    H3        1.08650      .   S
    C24    C25       1.38992      .   S
    C62    O98       1.28353      .   S
    C62    O101      1.27542      .   S
    C25    C27       1.47291  1_565   S
    H12    C53       1.08742      .   S
    C27    O78       1.28010      .   S
    C27    O75       1.27695      .   S
    H13    C54       1.08528      .   S
    O96    C56       1.27411      .   S
    C53    C54       1.40692      .   S
    C53    C52       1.38933  1_455   S
    C54    C55       1.38867      .   S
    O81    C33       1.27634      .   S
    C52    C56       1.47377      .   S
    C52    S70       1.72626  1_655   S
    C56    O100      1.27557      .   S
    O103   C57       1.28308      .   S
    C55    C57       1.46771      .   S
    C55    S70       1.72458      .   S
    S66    C31       1.72556      .   S
    S66    C28       1.72604  1_655   S
    O84    C32       1.27511      .   S
    C33    C31       1.46764      .   S
    C33    O87       1.28247      .   S
    C57    O97       1.27565      .   S
    C31    C30       1.38871      .   S
    C32    C28       1.47469      .   S
    C32    O80       1.27477      .   S
    C28    C29       1.38981  1_455   S
    O91    C51       1.27699      .   S
    C30    C29       1.40675      .   S
    C30    H5        1.08556      .   S
    O94    C51       1.28090      .   S
    C29    H4        1.08739  1_565   S
    C51    C49       1.47327      .   S
    O85    C38       1.27464      .   S
    O82    C38       1.28381      .   S
    C49    C48       1.38985      .   S
    C49    S69       1.72759      .   S
    C38    C34       1.47220      .   S
    H11    C48       1.08646      .   S
