# CIF file generated by openbabel 2.4.90, see http://openbabel.sf.net
data_I
_chemical_name_common ''
_cell_length_a 10.009
_cell_length_b 13.154
_cell_length_c 15.547
_cell_angle_alpha 89.998
_cell_angle_beta 89.946
_cell_angle_gamma 89.972
_space_group_name_H-M_alt 'P 1'
_space_group_name_Hall 'P 1'
loop_
    _symmetry_equiv_pos_as_xyz
    x,y,z
loop_
    _atom_site_label
    _atom_site_type_symbol
    _atom_site_fract_x
    _atom_site_fract_y
    _atom_site_fract_z
    _atom_site_occupancy
    Zn0     Zn   0.09972   0.25866   0.24793   1.000
    Zn1     Zn   0.40001   0.05837   0.80394   1.000
    Zn2     Zn   0.41059   0.74218   0.74791   1.000
    Zn3     Zn   0.89969   0.44467   0.19991   1.000
    Zn4     Zn   0.90716   0.75965   0.25572   1.000
    Zn5     Zn   0.61074   0.55899   0.69988   1.000
    Zn6     Zn   0.60025   0.24372   0.75579   1.000
    Zn7     Zn   0.11034   0.94272   0.30372   1.000
