# CIF file generated by openbabel 2.4.90, see http://openbabel.sf.net
data_I
_chemical_name_common ''
_cell_length_a 10.009
_cell_length_b 13.154
_cell_length_c 15.547
_cell_angle_alpha 89.998
_cell_angle_beta 89.946
_cell_angle_gamma 89.972
_space_group_name_H-M_alt 'P 1'
_space_group_name_Hall 'P 1'
loop_
    _symmetry_equiv_pos_as_xyz
    x,y,z
loop_
    _atom_site_label
    _atom_site_type_symbol
    _atom_site_fract_x
    _atom_site_fract_y
    _atom_site_fract_z
    _atom_site_occupancy
    N0      N    0.30167   0.43153   0.96719   1.000
    N1      N    0.70769   0.93223   0.53642   1.000
    N2      N    0.41911   0.62931   0.21544   1.000
    N3      N    0.08989   0.37260   0.71622   1.000
    N4      N    0.20851   0.57019   0.46742   1.000
    N5      N    0.92092   0.87292   0.78680   1.000
    N6      N    0.80160   0.07072   0.03640   1.000
    N7      N    0.58934   0.12970   0.28795   1.000
    Zr8     Zr   0.40001   0.05837   0.80394   1.000
    O9      O    0.48728   0.02223   0.72320   1.000
    O10     O    0.31006   0.15325   0.78101   1.000
    O11     O    0.26024   0.00183   0.80247   1.000
    O12     O    0.51644   0.06024   0.87405   1.000
    Zr13    Zr   0.11034   0.94272   0.30372   1.000
    O14     O    0.99366   0.94128   0.37392   1.000
    O15     O    0.24981   0.99997   0.30264   1.000
    O16     O    0.20002   0.84818   0.28065   1.000
    O17     O    0.02273   0.97966   0.22310   1.000
    Zr18    Zr   0.60025   0.24372   0.75579   1.000
    O19     O    0.65337   0.19552   0.84131   1.000
    O20     O    0.63461   0.15158   0.69171   1.000
    O21     O    0.45136   0.28366   0.74216   1.000
    O22     O    0.74246   0.28671   0.74596   1.000
    Zr23    Zr   0.89969   0.44467   0.19991   1.000
    O24     O    0.80961   0.34973   0.22330   1.000
    O25     O    0.98730   0.48104   0.28054   1.000
    O26     O    0.75963   0.50111   0.20065   1.000
    O27     O    0.01621   0.44249   0.12970   1.000
    Zr28    Zr   0.90716   0.75965   0.25572   1.000
    O29     O    0.85449   0.80757   0.34126   1.000
    O30     O    0.76555   0.71603   0.24563   1.000
    O31     O    0.05659   0.71938   0.24191   1.000
    O32     O    0.87360   0.85170   0.19166   1.000
    Zr33    Zr   0.61074   0.55899   0.69988   1.000
    O34     O    0.52306   0.52225   0.78053   1.000
    O35     O    0.49417   0.56028   0.62977   1.000
    O36     O    0.70083   0.65366   0.72257   1.000
    O37     O    0.75031   0.50194   0.70108   1.000
    Zr38    Zr   0.41059   0.74218   0.74791   1.000
    O39     O    0.37587   0.65034   0.81199   1.000
    O40     O    0.35731   0.69422   0.66245   1.000
    O41     O    0.26860   0.78597   0.75762   1.000
    O42     O    0.55948   0.78263   0.76138   1.000
    Zr43    Zr   0.09972   0.25866   0.24793   1.000
    O44     O    0.24196   0.21569   0.25792   1.000
    O45     O    0.15304   0.30680   0.16238   1.000
    O46     O    0.95085   0.21863   0.26168   1.000
    O47     O    0.13402   0.35085   0.31208   1.000
loop_
    _geom_bond_atom_site_label_1
    _geom_bond_atom_site_label_2
    _geom_bond_distance
    _geom_bond_site_symmetry_2
    _ccdc_geom_bond_type
    Zr8    O9        1.60062      .   S
    N1     O9        3.83228  1_565   S
    Zr8    O10       1.57953      .   S
    N3     O10       3.76745      .   S
    Zr8    O11       1.58487      .   S
    N5     O11       3.80486  1_665   S
    Zr8    O12       1.59658      .   S
    N6     O12       3.81455  1_554   S
    Zr13   O14       1.59789  1_455   S
    N1     O14       3.81784      .   S
    Zr13   O15       1.58648      .   S
    N7     O15       3.81019  1_545   S
    Zr13   O16       1.57460      .   S
    N2     O16       3.75696      .   S
    Zr13   O17       1.60544      .   S
    N6     O17       3.84283  1_645   S
    Zr18   O19       1.56633      .   S
    N6     O19       3.75519  1_554   S
    Zr18   O20       1.60586      .   S
    N1     O20       3.83199  1_565   S
    Zr18   O21       1.59421      .   S
    N3     O21       3.82351      .   S
    Zr18   O22       1.53932      .   S
    N3     O22       3.68569  1_455   S
    Zr23   O24       1.58281      .   S
    N7     O24       3.77489      .   S
    Zr23   O25       1.60363      .   S
    N4     O25       3.83853  1_455   S
    Zr23   O26       1.58596      .   S
    N2     O26       3.80869      .   S
    Zr23   O27       1.59676  1_655   S
    N0     O27       3.81494  1_556   S
    Zr28   O29       1.56275      .   S
    N1     O29       3.74752      .   S
    Zr28   O30       1.53749      .   S
    N2     O30       3.68127      .   S
    Zr28   O31       1.60074  1_655   S
    N2     O31       3.83824      .   S
    Zr28   O32       1.60344      .   S
    N6     O32       3.82701  1_545   S
    Zr33   O34       1.60437      .   S
    N0     O34       3.84009      .   S
    Zr33   O35       1.59759      .   S
    N4     O35       3.81780      .   S
    Zr33   O36       1.57794      .   S
    N5     O36       3.76548      .   S
    Zr33   O37       1.58554      .   S
    N3     O37       3.80764  1_455   S
    Zr38   O39       1.60391      .   S
    N0     O39       3.82833      .   S
    Zr38   O40       1.56517      .   S
    N4     O40       3.75292      .   S
    Zr38   O41       1.54048      .   S
    N5     O41       3.69012  1_655   S
    Zr38   O42       1.59655      .   S
    N5     O42       3.82898      .   S
    Zr43   O44       1.53944      .   S
    N7     O44       3.68590      .   S
    Zr43   O45       1.56646      .   S
    N0     O45       3.75593  1_556   S
    Zr43   O46       1.59475  1_455   S
    N7     O46       3.82484      .   S
    Zr43   O47       1.60760      .   S
    N4     O47       3.83648      .   S
