# CIF file generated by openbabel 2.4.90, see http://openbabel.sf.net
data_I
_chemical_name_common 'VESTA_phase_1'
_cell_length_a 13.087
_cell_length_b 16.838
_cell_length_c 13.96
_cell_angle_alpha 105.88
_cell_angle_beta 89.81
_cell_angle_gamma 90.133
_space_group_name_H-M_alt 'P 1'
_space_group_name_Hall 'P 1'
loop_
    _symmetry_equiv_pos_as_xyz
    x,y,z
loop_
    _atom_site_label
    _atom_site_type_symbol
    _atom_site_fract_x
    _atom_site_fract_y
    _atom_site_fract_z
    _atom_site_occupancy
    Zn0     Zn   0.50146   0.81957   0.81287   1.000
    Zn1     Zn   0.44354   0.34732   0.10563   1.000
    Zn2     Zn   0.00412   0.18029   0.68739   1.000
    Zn3     Zn   0.94239   0.65222   0.39502   1.000
    Zn4     Zn   0.50232   0.17829   0.18685   1.000
    Zn5     Zn   0.55959   0.64999   0.89127   1.000
    Zn6     Zn   0.00000   0.81941   0.31243   1.000
    Zn7     Zn   0.05824   0.34768   0.60461   1.000
    H8      H    0.34969   0.49274   0.72079   1.000
    H9      H    0.07394   0.49529   0.54848   1.000
    H10     H    0.26951   0.70941   0.62879   1.000
    H11     H    0.24667   0.04042   0.75705   1.000
    H12     H    0.28888   0.27954   0.96373   1.000
    H13     H    0.45512   0.06612   0.00000   1.000
    H14     H    0.85105   0.50594   0.77623   1.000
    H15     H    0.57427   0.50329   0.94883   1.000
    H16     H    0.77111   0.29029   0.87123   1.000
    H17     H    0.74660   0.95911   0.74467   1.000
    H18     H    0.78827   0.72022   0.53746   1.000
    H19     H    0.95791   0.93312   0.50055   1.000
    H20     H    0.65252   0.50632   0.27573   1.000
    H21     H    0.92631   0.50497   0.45116   1.000
    H22     H    0.72948   0.29155   0.37290   1.000
    H23     H    0.75605   0.95694   0.24280   1.000
    H24     H    0.71414   0.71846   0.03472   1.000
    H25     H    0.54684   0.93206   0.99854   1.000
    H26     H    0.15335   0.49335   0.22530   1.000
    H27     H    0.42674   0.49426   0.04742   1.000
    H28     H    0.23062   0.70763   0.12633   1.000
    H29     H    0.25436   0.04090   0.25384   1.000
    H30     H    0.21428   0.27982   0.46172   1.000
    H31     H    0.04527   0.06702   0.49966   1.000
    C32     C    0.40735   0.65238   0.74002   1.000
    C33     C    0.31854   0.60603   0.68239   1.000
    C34     C    0.29917   0.52530   0.68264   1.000
    C35     C    0.20921   0.48339   0.63430   1.000
    C36     C    0.14202   0.52668   0.58491   1.000
    C37     C    0.16446   0.60609   0.58215   1.000
    C38     C    0.09962   0.64771   0.52101   1.000
    C39     C    0.25257   0.64652   0.63085   1.000
    C40     C    0.38811   0.95651   0.83150   1.000
    C41     C    0.35463   0.04415   0.87583   1.000
    C42     C    0.28299   0.07914   0.82357   1.000
    C43     C    0.25842   0.16405   0.85660   1.000
    C44     C    0.17714   0.19944   0.80350   1.000
    C45     C    0.30688   0.21385   0.93941   1.000
    C46     C    0.37837   0.17876   0.99377   1.000
    C47     C    0.40042   0.09254   0.96078   1.000
    C48     C    0.90913   0.34709   0.75894   1.000
    C49     C    0.82006   0.39322   0.81627   1.000
    C50     C    0.80045   0.47357   0.81495   1.000
    C51     C    0.71016   0.51527   0.86285   1.000
    C52     C    0.64271   0.47213   0.91278   1.000
    C53     C    0.66545   0.39309   0.91660   1.000
    C54     C    0.60083   0.35151   0.97846   1.000
    C55     C    0.75397   0.35288   0.86836   1.000
    C56     C    0.88990   0.04286   0.67108   1.000
    C57     C    0.85613   0.95528   0.62644   1.000
    C58     C    0.78333   0.92041   0.67825   1.000
    C59     C    0.75801   0.83563   0.64400   1.000
    C60     C    0.67543   0.80039   0.69709   1.000
    C61     C    0.80691   0.78583   0.56208   1.000
    C62     C    0.87944   0.82083   0.50812   1.000
    C63     C    0.90243   0.90688   0.54158   1.000
    C64     C    0.59424   0.34730   0.25832   1.000
    C65     C    0.68234   0.39393   0.31659   1.000
    C66     C    0.70229   0.47427   0.31515   1.000
    C67     C    0.79182   0.51645   0.36401   1.000
    C68     C    0.85822   0.47361   0.41473   1.000
    C69     C    0.83500   0.39461   0.41864   1.000
    C70     C    0.89859   0.35329   0.48097   1.000
    C71     C    0.74710   0.35406   0.36979   1.000
    C72     C    0.61449   0.04155   0.16869   1.000
    C73     C    0.64785   0.95379   0.12430   1.000
    C74     C    0.71972   0.91851   0.17610   1.000
    C75     C    0.74472   0.83367   0.14200   1.000
    C76     C    0.82683   0.79792   0.19420   1.000
    C77     C    0.69585   0.78408   0.05950   1.000
    C78     C    0.62368   0.81928   0.00000   1.000
    C79     C    0.60170   0.90553   0.03944   1.000
    C80     C    0.09477   0.65231   0.24182   1.000
    C81     C    0.18311   0.60553   0.18354   1.000
    C82     C    0.20309   0.52534   0.18536   1.000
    C83     C    0.29267   0.48319   0.13610   1.000
    C84     C    0.35887   0.52575   0.08435   1.000
    C85     C    0.33585   0.60464   0.08021   1.000
    C86     C    0.39972   0.64577   0.01724   1.000
    C87     C    0.24808   0.64522   0.12965   1.000
    C88     C    0.11195   0.95726   0.32874   1.000
    C89     C    0.14596   0.04479   0.37296   1.000
    C90     C    0.21825   0.07963   0.32062   1.000
    C91     C    0.24388   0.16438   0.35414   1.000
    C92     C    0.32647   0.19928   0.30140   1.000
    C93     C    0.19552   0.21424   0.43706   1.000
    C94     C    0.12343   0.17928   0.49145   1.000
    C95     C    0.10038   0.09322   0.45822   1.000
    O96     O    0.47113   0.61045   0.77467   1.000
    O97     O    0.40872   0.72944   0.74987   1.000
    O98     O    0.19118   0.40902   0.63844   1.000
    O99     O    0.00646   0.61912   0.50460   1.000
    O100    O    0.13787   0.70201   0.48700   1.000
    O101    O    0.43056   0.91962   0.89145   1.000
    O102    O    0.37783   0.92578   0.74010   1.000
    O103    O    0.12393   0.14223   0.74171   1.000
    O104    O    0.16444   0.27491   0.82116   1.000
    O105    O    0.42301   0.22461   0.07417   1.000
    O106    O    0.97273   0.38895   0.72330   1.000
    O107    O    0.91098   0.27019   0.75006   1.000
    O108    O    0.69226   0.58934   0.85757   1.000
    O109    O    0.50724   0.37898   0.99448   1.000
    O110    O    0.63986   0.29817   0.00000   1.000
    O111    O    0.93196   0.08020   0.61110   1.000
    O112    O    0.87996   0.07303   0.76264   1.000
    O113    O    0.62178   0.85771   0.75837   1.000
    O114    O    0.66223   0.72492   0.67943   1.000
    O115    O    0.92401   0.77494   0.42743   1.000
    O116    O    0.53211   0.38891   0.22140   1.000
    O117    O    0.59186   0.27052   0.25015   1.000
    O118    O    0.81012   0.59051   0.35874   1.000
    O119    O    0.99288   0.37958   0.49513   1.000
    O120    O    0.85835   0.30126   0.51700   1.000
    O121    O    0.57368   0.07891   0.10828   1.000
    O122    O    0.62333   0.07213   0.26022   1.000
    O123    O    0.87977   0.85498   0.25663   1.000
    O124    O    0.83998   0.72244   0.17525   1.000
    O125    O    0.57837   0.77356   0.92590   1.000
    O126    O    0.03148   0.61101   0.27851   1.000
    O127    O    0.09329   0.72917   0.25008   1.000
    O128    O    0.31131   0.40940   0.14181   1.000
    O129    O    0.49319   0.61796   0.00078   1.000
    O130    O    0.36044   0.69904   0.98304   1.000
    O131    O    0.07132   0.91978   0.38930   1.000
    O132    O    0.12030   0.92704   0.23700   1.000
    O133    O    0.38199   0.14165   0.24277   1.000
    O134    O    0.33796   0.27471   0.31657   1.000
    O135    O    0.07928   0.22517   0.57241   1.000
loop_
    _geom_bond_atom_site_label_1
    _geom_bond_atom_site_label_2
    _geom_bond_distance
    _geom_bond_site_symmetry_2
    _ccdc_geom_bond_type
    C78    C79       1.43473      .   S
    C78    C77       1.48672      .   S
    C78    O125      1.25717  1_554   S
    O110   C54       1.14416  1_554   S
    H13    C47       1.07125  1_554   S
    O129   C86       1.30778      .   S
    O129   Zn5       1.95531  1_554   S
    C86    C85       1.50889      .   S
    C86    O130      1.23879  1_554   S
    H24    C77       1.09063      .   S
    C79    C73       1.37992      .   S
    C79    H25       1.08847  1_554   S
    H27    C84       1.08879      .   S
    C77    C75       1.38155      .   S
    O105   Zn1       2.00902      .   S
    O105   C46       1.31347  1_554   S
    C85    C84       1.37926      .   S
    C85    C87       1.41523      .   S
    C84    C83       1.43612      .   S
    Zn1    O128      2.01397      .   S
    Zn1    O116      1.95833      .   S
    Zn1    O109      1.95669  1_554   S
    O121   C72       1.29893      .   S
    O121   Zn4       1.96758      .   S
    C73    C72       1.50269  1_565   S
    C73    C74       1.41518      .   S
    H28    C87       1.08935      .   S
    C87    C81       1.41553      .   S
    C83    O128      1.29049      .   S
    C83    C82       1.44297      .   S
    C75    C74       1.41531      .   S
    C75    C76       1.51537      .   S
    C72    O122      1.24574      .   S
    O124   C76       1.23767      .   S
    C74    H23       1.08794      .   S
    C81    C82       1.38306      .   S
    C81    C80       1.50533      .   S
    C82    H26       1.08868      .   S
    Zn4    O133      1.92885      .   S
    Zn4    O117      1.95276      .   S
    C76    O123      1.30589      .   S
    O116   C64       1.27312      .   S
    O132   C88       1.24648      .   S
    C80    O127      1.26757      .   S
    C80    O126      1.27335      .   S
    O133   C92       1.30543      .   S
    O127   Zn6       1.95823      .   S
    O117   C64       1.26679      .   S
    H29    C90       1.08784      .   S
    O123   Zn6       1.92594  1_655   S
    C64    C65       1.50323      .   S
    H20    C66       1.08852      .   S
    O126   Zn3       1.96465  1_455   S
    C92    O134      1.23798      .   S
    C92    C91       1.51143      .   S
    Zn6    O131      1.97128      .   S
    C66    C65       1.38277      .   S
    C66    C67       1.44175      .   S
    C65    C71       1.41432      .   S
    C90    C91       1.41469      .   S
    C90    C89       1.41429      .   S
    C88    C89       1.50077  1_565   S
    C88    O131      1.29735      .   S
    C91    C93       1.38241      .   S
    O118   C67       1.29089      .   S
    O118   Zn3       2.01059      .   S
    C67    C68       1.43632      .   S
    C71    H22       1.08933      .   S
    C71    C69       1.41473      .   S
    C89    C95       1.37982      .   S
    Zn3    O115      2.00547      .   S
    Zn3    O99       1.95726  1_655   S
    C68    C69       1.37933      .   S
    C68    H21       1.08873      .   S
    C69    C70       1.50748      .   S
    O115   C62       1.31445      .   S
    C93    H30       1.09059      .   S
    C93    C94       1.43192      .   S
    C95    C94       1.42722      .   S
    C95    H31       1.08855      .   S
    C70    O119      1.30729      .   S
    C70    O120      1.23900      .   S
    O100   C38       1.24322      .   S
    C94    O135      1.31456      .   S
    O119   Zn7       1.95348  1_655   S
    H19    C63       1.08844      .   S
    O99    C38       1.30751      .   S
    C62    C63       1.42706      .   S
    C62    C61       1.43223      .   S
    C38    C37       1.50812      .   S
    H18    C61       1.09074      .   S
    C63    C57       1.37981      .   S
    H9     C36       1.08883      .   S
    C61    C59       1.37596      .   S
    O135   Zn7       2.00693      .   S
    C37    C36       1.37914      .   S
    C37    C39       1.41546      .   S
    C36    C35       1.43594      .   S
    Zn7    O98       2.01169      .   S
    Zn7    O106      1.95999  1_455   S
    O111   C56       1.29732      .   S
    O111   Zn2       1.97061  1_655   S
    C57    C56       1.50132  1_565   S
    C57    C58       1.41455      .   S
    H10    C39       1.08945      .   S
    C39    C33       1.41543      .   S
    C35    O98       1.29039      .   S
    C35    C34       1.44238      .   S
    C59    C58       1.41472      .   S
    C59    C60       1.51716      .   S
    C56    O112      1.24604      .   S
    C58    H17       1.08778      .   S
    O114   C60       1.23836      .   S
    C33    C34       1.38299      .   S
    C33    C32       1.50518      .   S
    C34    H8        1.08858      .   S
    Zn2    O103      1.92950      .   S
    Zn2    O107      1.95417  1_455   S
    C60    O113      1.30517      .   S
    O106   C48       1.27419      .   S
    C32    O97       1.26692      .   S
    C32    O96       1.27338      .   S
    O102   C40       1.24637      .   S
    O103   C44       1.30509      .   S
    O97    Zn0       1.95389      .   S
    O107   C48       1.26698      .   S
    H11    C42       1.08791      .   S
    O113   Zn0       1.93023      .   S
    C48    C49       1.50347      .   S
    O96    Zn5       1.96178      .   S
    H14    C50       1.08858      .   S
    C44    O104      1.23787      .   S
    C44    C43       1.51196      .   S
    Zn0    O101      1.97272      .   S
    C50    C49       1.38260      .   S
    C50    C51       1.44160      .   S
    C49    C55       1.41485      .   S
    C42    C43       1.41428      .   S
    C42    C41       1.41449      .   S
    C40    C41       1.50135  1_565   S
    C40    O101      1.29769      .   S
    C43    C45       1.38332      .   S
    O108   C51       1.29132      .   S
    O108   Zn5       2.00473      .   S
    C51    C52       1.43625      .   S
    C55    H16       1.08939      .   S
    C55    C53       1.41529      .   S
    C41    C47       1.37948      .   S
    Zn5    O125      2.01767      .   S
    C52    C53       1.37950      .   S
    C52    H15       1.08890      .   S
    C53    C54       1.50814      .   S
    C45    H12       1.09068      .   S
    C45    C46       1.43270      .   S
    C47    C46       1.42761      .   S
    C54    O109      1.30698      .   S
    O105   Zn4       2.20131      .   S
    O115   Zn6       2.18420  1_655   S
    O125   Zn0       2.18780      .   S
    O135   Zn2       2.18286      .   S
