# CIF file generated by openbabel 2.4.90, see http://openbabel.sf.net
data_I
_chemical_name_common ''
_cell_length_a 15.541
_cell_length_b 15.536
_cell_length_c 15.533
_cell_angle_alpha 76.13
_cell_angle_beta 76.134
_cell_angle_gamma 76.139
_space_group_name_H-M_alt 'P 1'
_space_group_name_Hall 'P 1'
loop_
    _symmetry_equiv_pos_as_xyz
    x,y,z
loop_
    _atom_site_label
    _atom_site_type_symbol
    _atom_site_fract_x
    _atom_site_fract_y
    _atom_site_fract_z
    _atom_site_occupancy
    C0      C    0.02439   0.02435   0.50260   1.000
    C1      C    0.50264   0.02437   0.02435   1.000
    C2      C    0.02439   0.50260   0.02434   1.000
    C3      C    0.97561   0.97564   0.49741   1.000
    C4      C    0.97561   0.49739   0.97567   1.000
    C5      C    0.49735   0.97562   0.97567   1.000
loop_
    _geom_bond_atom_site_label_1
    _geom_bond_atom_site_label_2
    _geom_bond_distance
    _geom_bond_site_symmetry_2
    _ccdc_geom_bond_type
    C2     C4        1.21906  1_454   S
    C1     C5        1.21912  1_544   S
    C3     C0        1.21963  1_665   S
