# CIF file generated by openbabel 2.4.90, see http://openbabel.sf.net
data_I
_chemical_name_common ''
_cell_length_a 15.541
_cell_length_b 15.536
_cell_length_c 15.533
_cell_angle_alpha 76.13
_cell_angle_beta 76.134
_cell_angle_gamma 76.139
_space_group_name_H-M_alt 'P 1'
_space_group_name_Hall 'P 1'
loop_
    _symmetry_equiv_pos_as_xyz
    x,y,z
loop_
    _atom_site_label
    _atom_site_type_symbol
    _atom_site_fract_x
    _atom_site_fract_y
    _atom_site_fract_z
    _atom_site_occupancy
    H0      H    0.97613   0.20163   0.50774   1.000
    H1      H    0.50781   0.97599   0.20162   1.000
    H2      H    0.20168   0.50753   0.97595   1.000
    H3      H    0.79834   0.02402   0.49240   1.000
    H4      H    0.02387   0.49223   0.79838   1.000
    H5      H    0.49219   0.79836   0.02400   1.000
    H6      H    0.02387   0.79836   0.49228   1.000
    H7      H    0.49219   0.02400   0.79839   1.000
    H8      H    0.79832   0.49246   0.02407   1.000
    H9      H    0.20166   0.97598   0.50753   1.000
    H10     H    0.97613   0.50776   0.20164   1.000
    H11     H    0.50780   0.20163   0.97595   1.000
    H12     H    0.23787   0.23766   0.52227   1.000
    H13     H    0.52260   0.23772   0.23768   1.000
    H14     H    0.23788   0.52231   0.23765   1.000
    H15     H    0.76212   0.76233   0.47774   1.000
    H16     H    0.76212   0.47768   0.76237   1.000
    H17     H    0.47740   0.76227   0.76233   1.000
    C18     C    0.10293   0.22921   0.51559   1.000
    C19     C    0.04679   0.17321   0.51050   1.000
    C20     C    0.51581   0.10279   0.22920   1.000
    C21     C    0.51064   0.04666   0.17321   1.000
    C22     C    0.22930   0.51552   0.10272   1.000
    C23     C    0.17329   0.51039   0.04660   1.000
    C24     C    0.77070   0.89724   0.48450   1.000
    C25     C    0.82671   0.95335   0.48960   1.000
    C26     C    0.89707   0.48436   0.77082   1.000
    C27     C    0.95321   0.48947   0.82681   1.000
    C28     C    0.48419   0.77077   0.89728   1.000
    C29     C    0.48937   0.82676   0.95340   1.000
    C30     C    0.89707   0.77079   0.48442   1.000
    C31     C    0.95321   0.82678   0.48950   1.000
    C32     C    0.48419   0.89720   0.77081   1.000
    C33     C    0.48936   0.95333   0.82681   1.000
    C34     C    0.77070   0.48447   0.89730   1.000
    C35     C    0.82671   0.48961   0.95341   1.000
    C36     C    0.22930   0.10275   0.51551   1.000
    C37     C    0.17329   0.04665   0.51037   1.000
    C38     C    0.10293   0.51563   0.22920   1.000
    C39     C    0.04679   0.51052   0.17320   1.000
    C40     C    0.51580   0.22922   0.10273   1.000
    C41     C    0.51062   0.17323   0.04661   1.000
    C42     C    0.08118   0.08110   0.50820   1.000
    C43     C    0.19415   0.19400   0.51868   1.000
    C44     C    0.50837   0.08111   0.08100   1.000
    C45     C    0.51898   0.19402   0.19399   1.000
    C46     C    0.08119   0.50822   0.08107   1.000
    C47     C    0.19415   0.51872   0.19398   1.000
    C48     C    0.91882   0.91890   0.49181   1.000
    C49     C    0.80585   0.80600   0.48130   1.000
    C50     C    0.91881   0.49177   0.91894   1.000
    C51     C    0.80584   0.48128   0.80604   1.000
    C52     C    0.49162   0.91887   0.91894   1.000
    C53     C    0.48102   0.80597   0.80600   1.000
loop_
    _geom_bond_atom_site_label_1
    _geom_bond_atom_site_label_2
    _geom_bond_distance
    _geom_bond_site_symmetry_2
    _ccdc_geom_bond_type
    H5     C29       1.08671  1_554   S
    H8     C35       1.08771  1_554   S
    C23    C46       1.40848      .   S
    C23    C22       1.39793      .   S
    C23    H2        1.08757  1_554   S
    C41    C44       1.40825      .   S
    C41    C40       1.39777      .   S
    C41    H11       1.08758  1_554   S
    C44    C21       1.40954      .   S
    C46    C39       1.40842      .   S
    C22    C47       1.39996      .   S
    C40    C45       1.39994      .   S
    C39    H10       1.08803  1_455   S
    C39    C38       1.39799      .   S
    C21    H1        1.08798  1_545   S
    C21    C20       1.39778      .   S
    C47    C38       1.39984      .   S
    C47    H14       1.08735      .   S
    C45    C20       1.39983      .   S
    C45    H13       1.08725      .   S
    H15    C49       1.08715      .   S
    C49    C30       1.39998      .   S
    C49    C24       1.40003      .   S
    C30    C31       1.39788      .   S
    C24    C25       1.39767      .   S
    C31    C48       1.40852      .   S
    C31    H6        1.08807  1_655   S
    C25    C48       1.40860      .   S
    C25    H3        1.08786  1_565   S
    H9     C37       1.08799  1_565   S
    H0     C19       1.08803  1_655   S
    C42    C37       1.40849      .   S
    C42    C19       1.40849      .   S
    C37    C36       1.39791      .   S
    C19    C18       1.39792      .   S
    C36    C43       1.39994      .   S
    C18    C43       1.39989      .   S
    C43    H12       1.08732      .   S
    H17    C53       1.08699      .   S
    H16    C51       1.08735      .   S
    C32    C53       1.39979      .   S
    C32    C33       1.39788      .   S
    C26    C51       1.39985      .   S
    C26    C27       1.39787      .   S
    H4     C27       1.08802  1_455   S
    H7     C33       1.08802  1_545   S
    C53    C28       1.40022      .   S
    C51    C34       1.39995      .   S
    C27    C50       1.40842      .   S
    C33    C52       1.40838      .   S
    C28    C29       1.39776      .   S
    C34    C35       1.39784      .   S
    C52    C29       1.40840      .   S
    C50    C35       1.40848      .   S
