# CIF file generated by openbabel 2.4.90, see http://openbabel.sf.net
data_I
_chemical_name_common ''
_cell_length_a 15.541
_cell_length_b 15.536
_cell_length_c 15.533
_cell_angle_alpha 76.13
_cell_angle_beta 76.134
_cell_angle_gamma 76.139
_space_group_name_H-M_alt 'P 1'
_space_group_name_Hall 'P 1'
loop_
    _symmetry_equiv_pos_as_xyz
    x,y,z
loop_
    _atom_site_label
    _atom_site_type_symbol
    _atom_site_fract_x
    _atom_site_fract_y
    _atom_site_fract_z
    _atom_site_occupancy
    Lv0     Lv   0.51316   0.13804   0.13800   1.000
    Lv1     Lv   0.48684   0.86195   0.86200   1.000
    Lv2     Lv   0.13815   0.51296   0.13800   1.000
    Lv3     Lv   0.86185   0.48704   0.86202   1.000
    Lv4     Lv   0.86185   0.86198   0.48706   1.000
    Lv5     Lv   0.13814   0.13802   0.51293   1.000
