# CIF file generated by openbabel 2.4.90, see http://openbabel.sf.net
data_I
_chemical_name_common ''
_cell_length_a 15.541
_cell_length_b 15.536
_cell_length_c 15.533
_cell_angle_alpha 76.13
_cell_angle_beta 76.134
_cell_angle_gamma 76.139
_space_group_name_H-M_alt 'P 1'
_space_group_name_Hall 'P 1'
loop_
    _symmetry_equiv_pos_as_xyz
    x,y,z
loop_
    _atom_site_label
    _atom_site_type_symbol
    _atom_site_fract_x
    _atom_site_fract_y
    _atom_site_fract_z
    _atom_site_occupancy
    N0      N    0.51316   0.13804   0.13800   1.000
    N1      N    0.48684   0.86195   0.86200   1.000
    O2      O    0.49533   0.95230   0.95233   1.000
    N3      N    0.13815   0.51296   0.13800   1.000
    N4      N    0.86185   0.48704   0.86202   1.000
    O5      O    0.04773   0.50459   0.04768   1.000
    N6      N    0.86185   0.86198   0.48706   1.000
    N7      N    0.13814   0.13802   0.51293   1.000
    O8      O    0.95227   0.95231   0.49542   1.000
    Zr9     Zr   0.50000   0.50000   0.00001   1.000
    O10     O    0.49286   0.64589   0.94449   1.000
    O11     O    0.50713   0.35410   0.05552   1.000
    O12     O    0.35415   0.50701   0.05552   1.000
    O13     O    0.64585   0.49299   0.94450   1.000
    Zr14    Zr   1.00000   0.50000   0.50000   1.000
    O15     O    0.05560   0.35410   0.50703   1.000
    O16     O    0.05561   0.50704   0.35409   1.000
    O17     O    0.94439   0.64590   0.49297   1.000
    O18     O    0.94439   0.49295   0.64592   1.000
    Zr19    Zr   0.50000   1.00000   0.50000   1.000
    O20     O    0.49286   0.94445   0.64591   1.000
    O21     O    0.35414   0.05553   0.50700   1.000
    O22     O    0.64585   0.94447   0.49300   1.000
    O23     O    0.50714   0.05554   0.35409   1.000
loop_
    _geom_bond_atom_site_label_1
    _geom_bond_atom_site_label_2
    _geom_bond_distance
    _geom_bond_site_symmetry_2
    _ccdc_geom_bond_type
    N0     O2        4.63444  1_544   S
    N1     O2        2.25353      .   S
    N4     O5        4.63513  1_656   S
    N3     O5        2.25376      .   S
    N7     O8        4.63567  1_445   S
    N6     O8        2.25398      .   S
    Zr9    O10       2.20946  1_554   S
    N1     O10       3.28066      .   S
    Zr9    O11       2.20946      .   S
    N0     O11       3.28064      .   S
    Zr9    O12       2.20978      .   S
    N3     O12       3.28101      .   S
    Zr9    O13       2.20979  1_554   S
    N4     O13       3.28102      .   S
    Zr14   O15       2.21016  1_655   S
    N7     O15       3.28153      .   S
    Zr14   O16       2.20979  1_655   S
    N3     O16       3.28097      .   S
    Zr14   O17       2.21018      .   S
    N6     O17       3.28152      .   S
    Zr14   O18       2.20989      .   S
    N4     O18       3.28115      .   S
    Zr19   O20       2.20940      .   S
    N1     O20       3.28049      .   S
    Zr19   O21       2.20997  1_565   S
    N7     O21       3.28126      .   S
    Zr19   O22       2.20997      .   S
    N6     O22       3.28125      .   S
    Zr19   O23       2.20938  1_565   S
    N0     O23       3.28058      .   S
