# CIF file generated by openbabel 2.4.90, see http://openbabel.sf.net
data_I
_chemical_name_common ''
_cell_length_a 15.541
_cell_length_b 15.536
_cell_length_c 15.533
_cell_angle_alpha 76.13
_cell_angle_beta 76.134
_cell_angle_gamma 76.139
_space_group_name_H-M_alt 'P 1'
_space_group_name_Hall 'P 1'
loop_
    _symmetry_equiv_pos_as_xyz
    x,y,z
loop_
    _atom_site_label
    _atom_site_type_symbol
    _atom_site_fract_x
    _atom_site_fract_y
    _atom_site_fract_z
    _atom_site_occupancy
    Zr0     Zr   0.07554   0.51084   0.51085   1.000
    Zr1     Zr   0.51083   0.07562   0.51080   1.000
    Zr2     Zr   0.51081   0.51082   0.07565   1.000
    Zr3     Zr   0.48917   0.92438   0.48918   1.000
    Zr4     Zr   0.92444   0.48915   0.48917   1.000
    Zr5     Zr   0.48919   0.48917   0.92437   1.000
    Zr6     Zr   0.06563   0.32752   0.51477   1.000
    Zr7     Zr   0.51496   0.06548   0.32752   1.000
    Zr8     Zr   0.32758   0.51463   0.06539   1.000
    Zr9     Zr   0.67242   0.93457   0.48538   1.000
    Zr10    Zr   0.93436   0.48517   0.67249   1.000
    Zr11    Zr   0.48506   0.67246   0.93459   1.000
    Zr12    Zr   0.93436   0.67247   0.48525   1.000
    Zr13    Zr   0.48504   0.93451   0.67249   1.000
    Zr14    Zr   0.67242   0.48536   0.93463   1.000
    Zr15    Zr   0.32758   0.06543   0.51464   1.000
    Zr16    Zr   0.06563   0.51482   0.32750   1.000
    Zr17    Zr   0.51493   0.32753   0.06542   1.000
    Zr18    Zr   0.98364   0.35655   0.50471   1.000
    Zr19    Zr   0.11856   0.37535   0.52295   1.000
    Zr20    Zr   0.50491   0.98346   0.35650   1.000
    Zr21    Zr   0.52306   0.11847   0.37534   1.000
    Zr22    Zr   0.35661   0.50457   0.98339   1.000
    Zr23    Zr   0.37538   0.52274   0.11839   1.000
    Zr24    Zr   0.64341   0.01657   0.49545   1.000
    Zr25    Zr   0.62461   0.88159   0.47726   1.000
    Zr26    Zr   0.01635   0.49524   0.64345   1.000
    Zr27    Zr   0.88143   0.47699   0.62460   1.000
    Zr28    Zr   0.49510   0.64343   0.01660   1.000
    Zr29    Zr   0.47700   0.62465   0.88158   1.000
    Zr30    Zr   0.01635   0.64344   0.49531   1.000
    Zr31    Zr   0.88144   0.62465   0.47700   1.000
    Zr32    Zr   0.49509   0.01653   0.64345   1.000
    Zr33    Zr   0.47694   0.88152   0.62467   1.000
    Zr34    Zr   0.64338   0.49543   0.01660   1.000
    Zr35    Zr   0.62462   0.47725   0.88163   1.000
    Zr36    Zr   0.35659   0.98342   0.50457   1.000
    Zr37    Zr   0.37538   0.11841   0.52275   1.000
    Zr38    Zr   0.98365   0.50475   0.35657   1.000
    Zr39    Zr   0.11856   0.52301   0.37535   1.000
    Zr40    Zr   0.50489   0.35656   0.98342   1.000
    Zr41    Zr   0.52300   0.37534   0.11843   1.000
    O42     O    0.50295   0.57712   0.04613   1.000
    O43     O    0.49008   0.65794   0.97560   1.000
    O44     O    0.57710   0.50312   0.04613   1.000
    O45     O    0.65790   0.49039   0.97562   1.000
    O46     O    0.35148   0.51869   0.09189   1.000
    O47     O    0.34210   0.50960   0.02439   1.000
    O48     O    0.51897   0.35143   0.09193   1.000
    O49     O    0.50991   0.34205   0.02442   1.000
    O50     O    0.44309   0.51678   0.09702   1.000
    O51     O    0.51691   0.44308   0.09704   1.000
    O52     O    0.02464   0.50978   0.34204   1.000
    O53     O    0.09209   0.51891   0.35143   1.000
    O54     O    0.50993   0.02447   0.34201   1.000
    O55     O    0.51901   0.09197   0.35143   1.000
    O56     O    0.49704   0.95392   0.42284   1.000
    O57     O    0.95405   0.49695   0.42287   1.000
    O58     O    0.51694   0.09704   0.44307   1.000
    O59     O    0.09705   0.51692   0.44310   1.000
    O60     O    0.90790   0.64856   0.48113   1.000
    O61     O    0.90294   0.55690   0.48309   1.000
    O62     O    0.64852   0.90808   0.48132   1.000
    O63     O    0.55689   0.90299   0.48322   1.000
    O64     O    0.97536   0.65796   0.49028   1.000
    O65     O    0.65791   0.97557   0.49042   1.000
    O66     O    0.95404   0.42285   0.49694   1.000
    O67     O    0.90294   0.48307   0.55689   1.000
    O68     O    0.42288   0.95390   0.49688   1.000
    O69     O    0.48305   0.90295   0.55693   1.000
    O70     O    0.04595   0.57714   0.50308   1.000
    O71     O    0.57712   0.04610   0.50313   1.000
    O72     O    0.34208   0.02443   0.50960   1.000
    O73     O    0.02464   0.34204   0.50974   1.000
    O74     O    0.44311   0.09701   0.51678   1.000
    O75     O    0.50296   0.04607   0.57713   1.000
    O76     O    0.09705   0.44309   0.51690   1.000
    O77     O    0.04595   0.50304   0.57715   1.000
    O78     O    0.35148   0.09192   0.51870   1.000
    O79     O    0.09209   0.35143   0.51886   1.000
    O80     O    0.90790   0.48108   0.64855   1.000
    O81     O    0.48099   0.90802   0.64858   1.000
    O82     O    0.97535   0.49021   0.65797   1.000
    O83     O    0.49007   0.97552   0.65797   1.000
    O84     O    0.48309   0.55691   0.90298   1.000
    O85     O    0.48103   0.64856   0.90809   1.000
    O86     O    0.55690   0.48321   0.90300   1.000
    O87     O    0.64852   0.48130   0.90813   1.000
    O88     O    0.42290   0.49687   0.95388   1.000
    O89     O    0.49704   0.42287   0.95390   1.000
    O90     O    0.99999   0.50000   0.50001   1.000
    O91     O    0.50000   0.00000   0.49999   1.000
    O92     O    0.50000   0.50000   0.00001   1.000
    N93     N    0.51316   0.13804   0.13800   1.000
    O94     O    0.51427   0.11109   0.20818   1.000
    O95     O    0.51426   0.20821   0.11104   1.000
    N96     N    0.48684   0.86195   0.86200   1.000
    O97     O    0.48572   0.88890   0.79182   1.000
    O98     O    0.48573   0.79178   0.88897   1.000
    O99     O    0.49533   0.95230   0.95233   1.000
    N100    N    0.13815   0.51296   0.13800   1.000
    O101    O    0.20829   0.51402   0.11103   1.000
    O102    O    0.11121   0.51409   0.20818   1.000
    N103    N    0.86185   0.48704   0.86202   1.000
    O104    O    0.79170   0.48598   0.88899   1.000
    O105    O    0.88878   0.48590   0.79184   1.000
    O106    O    0.04773   0.50459   0.04768   1.000
    N107    N    0.86185   0.86198   0.48706   1.000
    O108    O    0.79171   0.88894   0.48600   1.000
    O109    O    0.88878   0.79180   0.48595   1.000
    N110    N    0.13814   0.13802   0.51293   1.000
    O111    O    0.11121   0.20819   0.51406   1.000
    O112    O    0.20829   0.11106   0.51400   1.000
    O113    O    0.95227   0.95231   0.49542   1.000
loop_
    _geom_bond_atom_site_label_1
    _geom_bond_atom_site_label_2
    _geom_bond_distance
    _geom_bond_site_symmetry_2
    _ccdc_geom_bond_type
    Zr28   O42       1.01313      .   S
    Zr2    O42       1.01313      .   S
    Zr28   O43       0.63964  1_554   S
    Zr11   O43       0.63964      .   S
    Zr34   O44       1.01323      .   S
    Zr2    O44       1.01323      .   S
    Zr34   O45       0.63944  1_554   S
    Zr14   O45       0.63944      .   S
    Zr8    O46       0.63894      .   S
    Zr23   O46       0.63894      .   S
    Zr8    O47       0.63964      .   S
    Zr22   O47       0.63964  1_556   S
    Zr17   O48       0.63890      .   S
    Zr41   O48       0.63890      .   S
    Zr17   O49       0.63958      .   S
    Zr40   O49       0.63958  1_556   S
    Zr2    O50       1.01337      .   S
    Zr23   O50       1.01337      .   S
    Zr2    O51       1.01322      .   S
    Zr41   O51       1.01322      .   S
    Zr16   O52       0.63985      .   S
    Zr38   O52       0.63985  1_655   S
    Zr16   O53       0.63907      .   S
    Zr39   O53       0.63907      .   S
    Zr7    O54       0.63979      .   S
    Zr20   O54       0.63979  1_565   S
    Zr7    O55       0.63892      .   S
    Zr21   O55       0.63892      .   S
    Zr20   O56       1.01351      .   S
    Zr3    O56       1.01351      .   S
    Zr38   O57       1.01326      .   S
    Zr4    O57       1.01326      .   S
    Zr21   O58       1.01291      .   S
    Zr1    O58       1.01291      .   S
    Zr39   O59       1.01340      .   S
    Zr0    O59       1.01340      .   S
    Zr31   O60       0.63909      .   S
    Zr12   O60       0.63909      .   S
    Zr31   O61       1.01359      .   S
    Zr4    O61       1.01359      .   S
    Zr25   O62       0.63894      .   S
    Zr9    O62       0.63894      .   S
    Zr25   O63       1.01351      .   S
    Zr3    O63       1.01351      .   S
    Zr12   O64       0.63983      .   S
    Zr30   O64       0.63983  1_455   S
    Zr9    O65       0.63981      .   S
    Zr24   O65       0.63981  1_545   S
    Zr4    O66       1.01348      .   S
    Zr18   O66       1.01348      .   S
    Zr4    O67       1.01289      .   S
    Zr27   O67       1.01289      .   S
    Zr3    O68       1.01333      .   S
    Zr36   O68       1.01333      .   S
    Zr3    O69       1.01313      .   S
    Zr33   O69       1.01313      .   S
    Zr30   O70       1.01347      .   S
    Zr0    O70       1.01347      .   S
    Zr24   O71       1.01334      .   S
    Zr1    O71       1.01334      .   S
    Zr36   O72       0.63980  1_565   S
    Zr15   O72       0.63980      .   S
    Zr18   O73       0.63985  1_655   S
    Zr6    O73       0.63985      .   S
    Zr1    O74       1.01349      .   S
    Zr37   O74       1.01349      .   S
    Zr1    O75       1.01332      .   S
    Zr32   O75       1.01332      .   S
    Zr0    O76       1.01361      .   S
    Zr19   O76       1.01361      .   S
    Zr0    O77       1.01324      .   S
    Zr26   O77       1.01324      .   S
    Zr15   O78       0.63891      .   S
    Zr37   O78       0.63891      .   S
    Zr6    O79       0.63891      .   S
    Zr19   O79       0.63891      .   S
    Zr27   O80       0.63930      .   S
    Zr10   O80       0.63930      .   S
    Zr33   O81       0.63891      .   S
    Zr13   O81       0.63891      .   S
    Zr26   O82       0.63983  1_455   S
    Zr10   O82       0.63983      .   S
    Zr32   O83       0.63983  1_545   S
    Zr13   O83       0.63983      .   S
    Zr29   O84       1.01323      .   S
    Zr5    O84       1.01323      .   S
    Zr29   O85       0.63888      .   S
    Zr11   O85       0.63888      .   S
    Zr35   O86       1.01337      .   S
    Zr5    O86       1.01337      .   S
    Zr35   O87       0.63895      .   S
    Zr14   O87       0.63895      .   S
    Zr5    O88       1.01318      .   S
    Zr22   O88       1.01318      .   S
    Zr5    O89       1.01312      .   S
    Zr40   O89       1.01312      .   S
    Zr0    O90       1.28000  1_455   S
    Zr4    O90       1.28000      .   S
    Zr1    O91       1.28047      .   S
    Zr3    O91       1.28048  1_565   S
    Zr2    O92       1.28056      .   S
    Zr5    O92       1.28056  1_556   S
    N93    O94       1.07271      .   S
    Zr7    O94       1.82060      .   S
    N93    O95       1.07268      .   S
    Zr17   O95       1.82058      .   S
    N96    O97       1.07260      .   S
    Zr13   O97       1.82048      .   S
    N96    O98       1.07270      .   S
    Zr11   O98       1.82060      .   S
    N93    O99       4.63444  1_544   S
    N96    O99       2.25353      .   S
    N100   O101      1.07266      .   S
    Zr8    O101      1.82062      .   S
    N100   O102      1.07269      .   S
    Zr16   O102      1.82049      .   S
    N103   O104      1.07266      .   S
    Zr14   O104      1.82061      .   S
    N103   O105      1.07277      .   S
    Zr10   O105      1.82078      .   S
    N103   O106      4.63513  1_656   S
    N100   O106      2.25376      .   S
    N107   O108      1.07270      .   S
    Zr9    O108      1.82070      .   S
    N107   O109      1.07283      .   S
    Zr12   O109      1.82088      .   S
    N110   O111      1.07285      .   S
    Zr6    O111      1.82092      .   S
    N110   O112      1.07273      .   S
    Zr15   O112      1.82074      .   S
    N110   O113      4.63567  1_445   S
    N107   O113      2.25398      .   S
