# CIF file generated by openbabel 2.4.90, see http://openbabel.sf.net
data_I
_chemical_name_common ''
_cell_length_a 15.541
_cell_length_b 15.536
_cell_length_c 15.533
_cell_angle_alpha 76.13
_cell_angle_beta 76.134
_cell_angle_gamma 76.139
_space_group_name_H-M_alt 'P 1'
_space_group_name_Hall 'P 1'
loop_
    _symmetry_equiv_pos_as_xyz
    x,y,z
loop_
    _atom_site_label
    _atom_site_type_symbol
    _atom_site_fract_x
    _atom_site_fract_y
    _atom_site_fract_z
    _atom_site_occupancy
    C0      C    0.07554   0.51084   0.51085   1.000
    C1      C    0.51083   0.07562   0.51080   1.000
    C2      C    0.51081   0.51082   0.07565   1.000
    C3      C    0.48917   0.92438   0.48918   1.000
    C4      C    0.92444   0.48915   0.48917   1.000
    C5      C    0.48919   0.48917   0.92437   1.000
    C6      C    0.97613   0.20163   0.50774   1.000
    C7      C    0.50781   0.97599   0.20162   1.000
    C8      C    0.20168   0.50753   0.97595   1.000
    C9      C    0.79834   0.02402   0.49240   1.000
    C10     C    0.02387   0.49223   0.79838   1.000
    C11     C    0.49219   0.79836   0.02400   1.000
    C12     C    0.02387   0.79836   0.49228   1.000
    C13     C    0.49219   0.02400   0.79839   1.000
    C14     C    0.79832   0.49246   0.02407   1.000
    C15     C    0.20166   0.97598   0.50753   1.000
    C16     C    0.97613   0.50776   0.20164   1.000
    C17     C    0.50780   0.20163   0.97595   1.000
    C18     C    0.23787   0.23766   0.52227   1.000
    C19     C    0.52260   0.23772   0.23768   1.000
    C20     C    0.23788   0.52231   0.23765   1.000
    C21     C    0.76212   0.76233   0.47774   1.000
    C22     C    0.76212   0.47768   0.76237   1.000
    C23     C    0.47740   0.76227   0.76233   1.000
    C24     C    0.06563   0.32752   0.51477   1.000
    C25     C    0.10293   0.22921   0.51559   1.000
    C26     C    0.04679   0.17321   0.51050   1.000
    C27     C    0.51496   0.06548   0.32752   1.000
    C28     C    0.51581   0.10279   0.22920   1.000
    C29     C    0.51064   0.04666   0.17321   1.000
    C30     C    0.32758   0.51463   0.06539   1.000
    C31     C    0.22930   0.51552   0.10272   1.000
    C32     C    0.17329   0.51039   0.04660   1.000
    C33     C    0.67242   0.93457   0.48538   1.000
    C34     C    0.77070   0.89724   0.48450   1.000
    C35     C    0.82671   0.95335   0.48960   1.000
    C36     C    0.93436   0.48517   0.67249   1.000
    C37     C    0.89707   0.48436   0.77082   1.000
    C38     C    0.95321   0.48947   0.82681   1.000
    C39     C    0.48506   0.67246   0.93459   1.000
    C40     C    0.48419   0.77077   0.89728   1.000
    C41     C    0.48937   0.82676   0.95340   1.000
    C42     C    0.93436   0.67247   0.48525   1.000
    C43     C    0.89707   0.77079   0.48442   1.000
    C44     C    0.95321   0.82678   0.48950   1.000
    C45     C    0.48504   0.93451   0.67249   1.000
    C46     C    0.48419   0.89720   0.77081   1.000
    C47     C    0.48936   0.95333   0.82681   1.000
    C48     C    0.67242   0.48536   0.93463   1.000
    C49     C    0.77070   0.48447   0.89730   1.000
    C50     C    0.82671   0.48961   0.95341   1.000
    C51     C    0.32758   0.06543   0.51464   1.000
    C52     C    0.22930   0.10275   0.51551   1.000
    C53     C    0.17329   0.04665   0.51037   1.000
    C54     C    0.06563   0.51482   0.32750   1.000
    C55     C    0.10293   0.51563   0.22920   1.000
    C56     C    0.04679   0.51052   0.17320   1.000
    C57     C    0.51493   0.32753   0.06542   1.000
    C58     C    0.51580   0.22922   0.10273   1.000
    C59     C    0.51062   0.17323   0.04661   1.000
    C60     C    0.08118   0.08110   0.50820   1.000
    C61     C    0.02439   0.02435   0.50260   1.000
    C62     C    0.19415   0.19400   0.51868   1.000
    C63     C    0.50837   0.08111   0.08100   1.000
    C64     C    0.50264   0.02437   0.02435   1.000
    C65     C    0.51898   0.19402   0.19399   1.000
    C66     C    0.08119   0.50822   0.08107   1.000
    C67     C    0.02439   0.50260   0.02434   1.000
    C68     C    0.19415   0.51872   0.19398   1.000
    C69     C    0.91882   0.91890   0.49181   1.000
    C70     C    0.97561   0.97564   0.49741   1.000
    C71     C    0.80585   0.80600   0.48130   1.000
    C72     C    0.91881   0.49177   0.91894   1.000
    C73     C    0.97561   0.49739   0.97567   1.000
    C74     C    0.80584   0.48128   0.80604   1.000
    C75     C    0.49162   0.91887   0.91894   1.000
    C76     C    0.49735   0.97562   0.97567   1.000
    C77     C    0.48102   0.80597   0.80600   1.000
    C78     C    0.98364   0.35655   0.50471   1.000
    C79     C    0.11856   0.37535   0.52295   1.000
    C80     C    0.50491   0.98346   0.35650   1.000
    C81     C    0.52306   0.11847   0.37534   1.000
    C82     C    0.35661   0.50457   0.98339   1.000
    C83     C    0.37538   0.52274   0.11839   1.000
    C84     C    0.64341   0.01657   0.49545   1.000
    C85     C    0.62461   0.88159   0.47726   1.000
    C86     C    0.01635   0.49524   0.64345   1.000
    C87     C    0.88143   0.47699   0.62460   1.000
    C88     C    0.49510   0.64343   0.01660   1.000
    C89     C    0.47700   0.62465   0.88158   1.000
    C90     C    0.01635   0.64344   0.49531   1.000
    C91     C    0.88144   0.62465   0.47700   1.000
    C92     C    0.49509   0.01653   0.64345   1.000
    C93     C    0.47694   0.88152   0.62467   1.000
    C94     C    0.64338   0.49543   0.01660   1.000
    C95     C    0.62462   0.47725   0.88163   1.000
    C96     C    0.35659   0.98342   0.50457   1.000
    C97     C    0.37538   0.11841   0.52275   1.000
    C98     C    0.98365   0.50475   0.35657   1.000
    C99     C    0.11856   0.52301   0.37535   1.000
    C100    C    0.50489   0.35656   0.98342   1.000
    C101    C    0.52300   0.37534   0.11843   1.000
    O102    O    0.50295   0.57712   0.04613   1.000
    O103    O    0.49008   0.65794   0.97560   1.000
    O104    O    0.57710   0.50312   0.04613   1.000
    O105    O    0.65790   0.49039   0.97562   1.000
    O106    O    0.49078   0.81256   0.98870   1.000
    O107    O    0.81251   0.49104   0.98874   1.000
    O108    O    0.05279   0.50541   0.05271   1.000
    O109    O    0.00000   0.50000   0.00001   1.000
    O110    O    0.50551   0.05274   0.05268   1.000
    O111    O    0.50000   0.99999   0.00001   1.000
    O112    O    0.12724   0.50930   0.06384   1.000
    O113    O    0.20130   0.51295   0.07466   1.000
    O114    O    0.18749   0.50896   0.01128   1.000
    O115    O    0.50950   0.12717   0.06381   1.000
    O116    O    0.51321   0.20123   0.07467   1.000
    O117    O    0.50921   0.18743   0.01128   1.000
    O118    O    0.27844   0.51508   0.08406   1.000
    O119    O    0.35148   0.51869   0.09189   1.000
    O120    O    0.34210   0.50960   0.02439   1.000
    O121    O    0.51537   0.27837   0.08408   1.000
    O122    O    0.51897   0.35143   0.09193   1.000
    O123    O    0.50991   0.34205   0.02442   1.000
    O124    O    0.44309   0.51678   0.09702   1.000
    O125    O    0.51691   0.44308   0.09704   1.000
    O126    O    0.50951   0.06389   0.12711   1.000
    O127    O    0.06399   0.50937   0.12714   1.000
    O128    O    0.21173   0.51712   0.14835   1.000
    O129    O    0.51739   0.21162   0.14836   1.000
    O130    O    0.01146   0.50914   0.18742   1.000
    O131    O    0.07486   0.51308   0.20120   1.000
    O132    O    0.50922   0.01133   0.18741   1.000
    O133    O    0.51323   0.07473   0.20121   1.000
    O134    O    0.14854   0.51718   0.21159   1.000
    O135    O    0.21601   0.52051   0.21582   1.000
    O136    O    0.51739   0.14841   0.21160   1.000
    O137    O    0.52079   0.21587   0.21584   1.000
    O138    O    0.51539   0.08413   0.27836   1.000
    O139    O    0.08428   0.51523   0.27835   1.000
    O140    O    0.02464   0.50978   0.34204   1.000
    O141    O    0.09209   0.51891   0.35143   1.000
    O142    O    0.50993   0.02447   0.34201   1.000
    O143    O    0.51901   0.09197   0.35143   1.000
    O144    O    0.49704   0.95392   0.42284   1.000
    O145    O    0.95405   0.49695   0.42287   1.000
    O146    O    0.51694   0.09704   0.44307   1.000
    O147    O    0.09705   0.51692   0.44310   1.000
    O148    O    0.90790   0.64856   0.48113   1.000
    O149    O    0.90294   0.55690   0.48309   1.000
    O150    O    0.64852   0.90808   0.48132   1.000
    O151    O    0.55689   0.90299   0.48322   1.000
    O152    O    0.78398   0.78417   0.47952   1.000
    O153    O    0.85146   0.78839   0.48286   1.000
    O154    O    0.78827   0.85162   0.48290   1.000
    O155    O    0.91571   0.72163   0.48484   1.000
    O156    O    0.92514   0.79878   0.48696   1.000
    O157    O    0.72156   0.91591   0.48494   1.000
    O158    O    0.79871   0.92530   0.48705   1.000
    O159    O    0.97536   0.65796   0.49028   1.000
    O160    O    0.65791   0.97557   0.49042   1.000
    O161    O    0.95404   0.42285   0.49694   1.000
    O162    O    0.90294   0.48307   0.55689   1.000
    O163    O    0.42288   0.95390   0.49688   1.000
    O164    O    0.48305   0.90295   0.55693   1.000
    O165    O    0.93601   0.87284   0.49066   1.000
    O166    O    0.98854   0.81257   0.49089   1.000
    O167    O    0.87276   0.93612   0.49071   1.000
    O168    O    0.81253   0.98868   0.49100   1.000
    O169    O    0.94721   0.94727   0.49461   1.000
    O170    O    0.04595   0.57714   0.50308   1.000
    O171    O    0.57712   0.04610   0.50313   1.000
    O172    O    0.00000   1.00000   0.50001   1.000
    O173    O    0.05279   0.05273   0.50540   1.000
    O174    O    0.34208   0.02443   0.50960   1.000
    O175    O    0.02464   0.34204   0.50974   1.000
    O176    O    0.18747   0.01131   0.50895   1.000
    O177    O    0.01146   0.18742   0.50912   1.000
    O178    O    0.12724   0.06387   0.50929   1.000
    O179    O    0.06399   0.12715   0.50935   1.000
    O180    O    0.20129   0.07470   0.51294   1.000
    O181    O    0.07486   0.20121   0.51305   1.000
    O182    O    0.44311   0.09701   0.51678   1.000
    O183    O    0.50296   0.04607   0.57713   1.000
    O184    O    0.09705   0.44309   0.51690   1.000
    O185    O    0.04595   0.50304   0.57715   1.000
    O186    O    0.27844   0.08409   0.51508   1.000
    O187    O    0.35148   0.09192   0.51870   1.000
    O188    O    0.08428   0.27837   0.51518   1.000
    O189    O    0.09209   0.35143   0.51886   1.000
    O190    O    0.21172   0.14838   0.51710   1.000
    O191    O    0.14854   0.21160   0.51714   1.000
    O192    O    0.21601   0.21583   0.52048   1.000
    O193    O    0.90790   0.48108   0.64855   1.000
    O194    O    0.48099   0.90802   0.64858   1.000
    O195    O    0.97535   0.49021   0.65797   1.000
    O196    O    0.49007   0.97552   0.65797   1.000
    O197    O    0.48461   0.91586   0.72165   1.000
    O198    O    0.91571   0.48477   0.72166   1.000
    O199    O    0.47921   0.78412   0.78417   1.000
    O200    O    0.78398   0.47948   0.78421   1.000
    O201    O    0.48260   0.85158   0.78841   1.000
    O202    O    0.48677   0.92526   0.79881   1.000
    O203    O    0.85145   0.48282   0.78843   1.000
    O204    O    0.92514   0.48692   0.79882   1.000
    O205    O    0.98854   0.49085   0.81260   1.000
    O206    O    0.49077   0.98866   0.81260   1.000
    O207    O    0.48261   0.78837   0.85164   1.000
    O208    O    0.78827   0.48287   0.85167   1.000
    O209    O    0.93601   0.49062   0.87288   1.000
    O210    O    0.49049   0.93610   0.87288   1.000
    O211    O    0.48309   0.55691   0.90298   1.000
    O212    O    0.48103   0.64856   0.90809   1.000
    O213    O    0.55690   0.48321   0.90300   1.000
    O214    O    0.64852   0.48130   0.90813   1.000
    O215    O    0.48463   0.72162   0.91594   1.000
    O216    O    0.48678   0.79876   0.92534   1.000
    O217    O    0.72156   0.48492   0.91597   1.000
    O218    O    0.79870   0.48704   0.92536   1.000
    O219    O    0.49050   0.87282   0.93617   1.000
    O220    O    0.49449   0.94725   0.94731   1.000
    O221    O    0.87276   0.49069   0.93618   1.000
    O222    O    0.94721   0.49458   0.94731   1.000
    O223    O    0.42290   0.49687   0.95388   1.000
    O224    O    0.49704   0.42287   0.95390   1.000
    O225    O    0.99999   0.50000   0.50001   1.000
    O226    O    0.50000   0.00000   0.49999   1.000
    O227    O    0.50000   0.50000   0.00001   1.000
loop_
    _geom_bond_atom_site_label_1
    _geom_bond_atom_site_label_2
    _geom_bond_distance
    _geom_bond_site_symmetry_2
    _ccdc_geom_bond_type
    C88    O102      1.01313      .   S
    C2     O102      1.01313      .   S
    C88    O103      0.63964  1_554   S
    C39    O103      0.63964      .   S
    C94    O104      1.01323      .   S
    C2     O104      1.01323      .   S
    C94    O105      0.63944  1_554   S
    C48    O105      0.63944      .   S
    C11    O106      0.54336  1_554   S
    C41    O106      0.54336      .   S
    C14    O107      0.54386  1_554   S
    C50    O107      0.54386      .   S
    C67    O108      0.70886      .   S
    C66    O108      0.70886      .   S
    C67    O109      0.60953      .   S
    C73    O109      0.60953  1_656   S
    C64    O110      0.70827      .   S
    C63    O110      0.70827      .   S
    C64    O111      0.60956  1_545   S
    C76    O111      0.60956  1_556   S
    C32    O112      0.70424      .   S
    C66    O112      0.70424      .   S
    C32    O113      0.69897      .   S
    C31    O113      0.69897      .   S
    C32    O114      0.54379      .   S
    C8     O114      0.54379  1_556   S
    C59    O115      0.70413      .   S
    C63    O115      0.70413      .   S
    C59    O116      0.69888      .   S
    C58    O116      0.69888      .   S
    C59    O117      0.54379      .   S
    C17    O117      0.54379  1_556   S
    C30    O118      0.74808      .   S
    C31    O118      0.74808      .   S
    C30    O119      0.63894      .   S
    C83    O119      0.63894      .   S
    C30    O120      0.63964      .   S
    C82    O120      0.63964  1_556   S
    C57    O121      0.74803      .   S
    C58    O121      0.74803      .   S
    C57    O122      0.63890      .   S
    C101   O122      0.63890      .   S
    C57    O123      0.63958      .   S
    C100   O123      0.63958  1_556   S
    C2     O124      1.01337      .   S
    C83    O124      1.01337      .   S
    C2     O125      1.01322      .   S
    C101   O125      1.01322      .   S
    C63    O126      0.70477      .   S
    C29    O126      0.70477      .   S
    C66    O127      0.70421      .   S
    C56    O127      0.70421      .   S
    C31    O128      0.69998      .   S
    C68    O128      0.69998      .   S
    C58    O129      0.69997      .   S
    C65    O129      0.69997      .   S
    C56    O130      0.54402      .   S
    C16    O130      0.54402  1_655   S
    C56    O131      0.69900      .   S
    C55    O131      0.69900      .   S
    C29    O132      0.54399      .   S
    C7     O132      0.54399  1_565   S
    C29    O133      0.69889      .   S
    C28    O133      0.69889      .   S
    C68    O134      0.69992      .   S
    C55    O134      0.69992      .   S
    C68    O135      0.54367      .   S
    C20    O135      0.54367      .   S
    C65    O136      0.69992      .   S
    C28    O136      0.69992      .   S
    C65    O137      0.54362      .   S
    C19    O137      0.54362      .   S
    C28    O138      0.74801      .   S
    C27    O138      0.74801      .   S
    C55    O139      0.74793      .   S
    C54    O139      0.74793      .   S
    C54    O140      0.63985      .   S
    C98    O140      0.63985  1_655   S
    C54    O141      0.63907      .   S
    C99    O141      0.63907      .   S
    C27    O142      0.63979      .   S
    C80    O142      0.63979  1_565   S
    C27    O143      0.63892      .   S
    C81    O143      0.63892      .   S
    C80    O144      1.01351      .   S
    C3     O144      1.01351      .   S
    C98    O145      1.01326      .   S
    C4     O145      1.01326      .   S
    C81    O146      1.01291      .   S
    C1     O146      1.01291      .   S
    C99    O147      1.01340      .   S
    C0     O147      1.01340      .   S
    C91    O148      0.63909      .   S
    C42    O148      0.63909      .   S
    C91    O149      1.01359      .   S
    C4     O149      1.01359      .   S
    C85    O150      0.63894      .   S
    C33    O150      0.63894      .   S
    C85    O151      1.01351      .   S
    C3     O151      1.01351      .   S
    C21    O152      0.54357      .   S
    C71    O152      0.54357      .   S
    C71    O153      0.69999      .   S
    C43    O153      0.69999      .   S
    C71    O154      0.70002      .   S
    C34    O154      0.70002      .   S
    C43    O155      0.74818      .   S
    C42    O155      0.74818      .   S
    C43    O156      0.69894      .   S
    C44    O156      0.69894      .   S
    C34    O157      0.74812      .   S
    C33    O157      0.74812      .   S
    C34    O158      0.69884      .   S
    C35    O158      0.69884      .   S
    C42    O159      0.63983      .   S
    C90    O159      0.63983  1_455   S
    C33    O160      0.63981      .   S
    C84    O160      0.63981  1_545   S
    C4     O161      1.01348      .   S
    C78    O161      1.01348      .   S
    C4     O162      1.01289      .   S
    C87    O162      1.01289      .   S
    C3     O163      1.01333      .   S
    C96    O163      1.01333      .   S
    C3     O164      1.01313      .   S
    C93    O164      1.01313      .   S
    C44    O165      0.70426      .   S
    C69    O165      0.70426      .   S
    C44    O166      0.54404      .   S
    C12    O166      0.54404  1_455   S
    C35    O167      0.70430      .   S
    C69    O167      0.70430      .   S
    C35    O168      0.54393      .   S
    C9     O168      0.54393  1_545   S
    C69    O169      0.70889      .   S
    C70    O169      0.70889      .   S
    C90    O170      1.01347      .   S
    C0     O170      1.01347      .   S
    C84    O171      1.01334      .   S
    C1     O171      1.01334      .   S
    C70    O172      0.60982  1_655   S
    C61    O172      0.60981  1_545   S
    C61    O173      0.70890      .   S
    C60    O173      0.70890      .   S
    C96    O174      0.63980  1_565   S
    C51    O174      0.63980      .   S
    C78    O175      0.63985  1_655   S
    C24    O175      0.63985      .   S
    C15    O176      0.54399  1_565   S
    C53    O176      0.54399      .   S
    C6     O177      0.54401  1_655   S
    C26    O177      0.54401      .   S
    C60    O178      0.70424      .   S
    C53    O178      0.70424      .   S
    C60    O179      0.70425      .   S
    C26    O179      0.70425      .   S
    C53    O180      0.69895      .   S
    C52    O180      0.69895      .   S
    C26    O181      0.69896      .   S
    C25    O181      0.69896      .   S
    C1     O182      1.01349      .   S
    C97    O182      1.01349      .   S
    C1     O183      1.01332      .   S
    C92    O183      1.01332      .   S
    C0     O184      1.01361      .   S
    C79    O184      1.01361      .   S
    C0     O185      1.01324      .   S
    C86    O185      1.01324      .   S
    C51    O186      0.74813      .   S
    C52    O186      0.74813      .   S
    C51    O187      0.63891      .   S
    C97    O187      0.63891      .   S
    C24    O188      0.74819      .   S
    C25    O188      0.74819      .   S
    C24    O189      0.63891      .   S
    C79    O189      0.63891      .   S
    C52    O190      0.69997      .   S
    C62    O190      0.69997      .   S
    C25    O191      0.69995      .   S
    C62    O191      0.69995      .   S
    C62    O192      0.54366      .   S
    C18    O192      0.54366      .   S
    C87    O193      0.63930      .   S
    C36    O193      0.63930      .   S
    C93    O194      0.63891      .   S
    C45    O194      0.63891      .   S
    C86    O195      0.63983  1_455   S
    C36    O195      0.63983      .   S
    C92    O196      0.63983  1_545   S
    C45    O196      0.63983      .   S
    C45    O197      0.74801      .   S
    C46    O197      0.74801      .   S
    C36    O198      0.74814      .   S
    C37    O198      0.74814      .   S
    C23    O199      0.54350      .   S
    C77    O199      0.54350      .   S
    C22    O200      0.54367      .   S
    C74    O200      0.54367      .   S
    C46    O201      0.69990      .   S
    C77    O201      0.69990      .   S
    C46    O202      0.69894      .   S
    C47    O202      0.69894      .   S
    C37    O203      0.69993      .   S
    C74    O203      0.69993      .   S
    C37    O204      0.69894      .   S
    C38    O204      0.69894      .   S
    C10    O205      0.54401  1_455   S
    C38    O205      0.54401      .   S
    C13    O206      0.54401  1_545   S
    C47    O206      0.54401      .   S
    C77    O207      0.70011      .   S
    C40    O207      0.70011      .   S
    C74    O208      0.69998      .   S
    C49    O208      0.69998      .   S
    C38    O209      0.70421      .   S
    C72    O209      0.70421      .   S
    C47    O210      0.70419      .   S
    C75    O210      0.70419      .   S
    C89    O211      1.01323      .   S
    C5     O211      1.01323      .   S
    C89    O212      0.63888      .   S
    C39    O212      0.63888      .   S
    C95    O213      1.01337      .   S
    C5     O213      1.01337      .   S
    C95    O214      0.63895      .   S
    C48    O214      0.63895      .   S
    C40    O215      0.74803      .   S
    C39    O215      0.74803      .   S
    C40    O216      0.69888      .   S
    C41    O216      0.69888      .   S
    C49    O217      0.74807      .   S
    C48    O217      0.74807      .   S
    C49    O218      0.69892      .   S
    C50    O218      0.69892      .   S
    C75    O219      0.70420      .   S
    C41    O219      0.70420      .   S
    C75    O220      0.70876      .   S
    C76    O220      0.70876      .   S
    C72    O221      0.70424      .   S
    C50    O221      0.70424      .   S
    C72    O222      0.70887      .   S
    C73    O222      0.70887      .   S
    C5     O223      1.01318      .   S
    C82    O223      1.01318      .   S
    C5     O224      1.01312      .   S
    C100   O224      1.01312      .   S
    C0     O225      1.28000  1_455   S
    C4     O225      1.28000      .   S
    C1     O226      1.28047      .   S
    C3     O226      1.28048  1_565   S
    C2     O227      1.28056      .   S
    C5     O227      1.28056  1_556   S
