# CIF file generated by openbabel 2.4.90, see http://openbabel.sf.net
data_I
_chemical_name_common ''
_cell_length_a 10.063
_cell_length_b 17.5475
_cell_length_c 20.135
_cell_angle_alpha 76.8877
_cell_angle_beta 85.078
_cell_angle_gamma 76.9058
_space_group_name_H-M_alt 'P 1'
_space_group_name_Hall 'P 1'
loop_
    _symmetry_equiv_pos_as_xyz
    x,y,z
loop_
    _atom_site_label
    _atom_site_type_symbol
    _atom_site_fract_x
    _atom_site_fract_y
    _atom_site_fract_z
    _atom_site_occupancy
    H0      H    0.87032   0.72301   0.68441   1.000
    H1      H    0.87033   0.72301   0.18440   1.000
    H2      H    0.01523   0.94181   0.61322   1.000
    H3      H    0.01525   0.94182   0.11321   1.000
    H4      H    0.29654   0.71731   0.68363   1.000
    H5      H    0.29655   0.71731   0.18362   1.000
    H6      H    0.62812   0.77678   0.56559   1.000
    H7      H    0.62813   0.77678   0.06558   1.000
    H8      H    0.77347   0.55797   0.49357   1.000
    H9      H    0.77348   0.55797   0.00000   1.000
    H10     H    0.63291   0.78220   0.85255   1.000
    H11     H    0.63294   0.78220   0.35253   1.000
    H12     H    0.12967   0.27701   0.81557   1.000
    H13     H    0.12969   0.27701   0.31556   1.000
    H14     H    0.98475   0.05820   0.88677   1.000
    H15     H    0.98477   0.05821   0.38677   1.000
    H16     H    0.70345   0.28271   0.81634   1.000
    H17     H    0.70347   0.28271   0.31633   1.000
    H18     H    0.37186   0.22323   0.93440   1.000
    H19     H    0.37187   0.22324   0.43439   1.000
    H20     H    0.22652   0.44206   0.00642   1.000
    H21     H    0.22653   0.44206   0.50641   1.000
    H22     H    0.36706   0.21783   0.64744   1.000
    H23     H    0.36708   0.21783   0.14743   1.000
    C24     C    0.95307   0.75497   0.67472   1.000
    C25     C    0.95309   0.75497   0.17471   1.000
    C26     C    0.92641   0.83781   0.64865   1.000
    C27     C    0.92643   0.83781   0.14864   1.000
    C28     C    0.16871   0.83496   0.64855   1.000
    C29     C    0.16873   0.83496   0.14854   1.000
    C30     C    0.03492   0.87763   0.63459   1.000
    C31     C    0.03493   0.87763   0.13458   1.000
    C32     C    0.19335   0.75220   0.67420   1.000
    C33     C    0.19337   0.75221   0.17419   1.000
    C34     C    0.08637   0.71154   0.68702   1.000
    C35     C    0.08639   0.71154   0.18700   1.000
    C36     C    0.64849   0.74480   0.52426   1.000
    C37     C    0.64849   0.74480   0.02425   1.000
    C38     C    0.70120   0.66202   0.53774   1.000
    C39     C    0.70121   0.66202   0.03772   1.000
    C40     C    0.70309   0.66466   0.91662   1.000
    C41     C    0.70311   0.66466   0.41661   1.000
    C42     C    0.73031   0.62210   0.48358   1.000
    C43     C    0.73032   0.62210   0.00000   1.000
    C44     C    0.65124   0.74736   0.90418   1.000
    C45     C    0.65126   0.74736   0.40417   1.000
    C46     C    0.62449   0.78812   0.95756   1.000
    C47     C    0.62450   0.78812   0.45755   1.000
    C48     C    0.04691   0.24505   0.82526   1.000
    C49     C    0.04693   0.24504   0.32524   1.000
    C50     C    0.07357   0.16221   0.85133   1.000
    C51     C    0.07359   0.16221   0.35133   1.000
    C52     C    0.83127   0.16506   0.85143   1.000
    C53     C    0.83129   0.16506   0.35143   1.000
    C54     C    0.96507   0.12239   0.86540   1.000
    C55     C    0.96509   0.12239   0.36538   1.000
    C56     C    0.80663   0.24781   0.82577   1.000
    C57     C    0.80666   0.24781   0.32576   1.000
    C58     C    0.91362   0.28848   0.81296   1.000
    C59     C    0.91363   0.28848   0.31296   1.000
    C60     C    0.35147   0.25522   0.97573   1.000
    C61     C    0.35151   0.25522   0.47572   1.000
    C62     C    0.29881   0.33800   0.96225   1.000
    C63     C    0.29879   0.33800   0.46224   1.000
    C64     C    0.29689   0.33536   0.58337   1.000
    C65     C    0.29693   0.33537   0.08336   1.000
    C66     C    0.26965   0.37792   0.01641   1.000
    C67     C    0.26969   0.37792   0.51639   1.000
    C68     C    0.34874   0.25266   0.59581   1.000
    C69     C    0.34873   0.25266   0.09580   1.000
    C70     C    0.37549   0.21190   0.54243   1.000
    C71     C    0.37553   0.21191   0.04242   1.000
loop_
    _geom_bond_atom_site_label_1
    _geom_bond_atom_site_label_2
    _geom_bond_distance
    _geom_bond_site_symmetry_2
    _ccdc_geom_bond_type
    H9     C43       1.11074      .   S
    C43    C39       1.12408      .   S
    C43    C40       1.69371  1_554   S
    H20    C66       1.08927      .   S
    C66    C65       1.40140      .   S
    C66    C62       1.40143  1_554   S
    C37    C39       1.40063      .   S
    C37    H7        1.08634      .   S
    C37    C46       1.39589  1_554   S
    C71    C69       1.39687      .   S
    C71    C60       1.39586  1_554   S
    C65    C69       1.39835      .   S
    C69    H23       1.08716      .   S
    H3     C31       1.08924      .   S
    C31    C29       1.40181      .   S
    C31    C27       1.40126  1_455   S
    C29    C33       1.39844      .   S
    C27    C25       1.40064      .   S
    C33    H5        1.08727      .   S
    C33    C35       1.39702      .   S
    C25    H1        1.08641      .   S
    C25    C35       1.39630  1_655   S
    C59    C49       1.39631  1_655   S
    C59    C57       1.39702      .   S
    H13    C49       1.08643      .   S
    H17    C57       1.08727      .   S
    C49    C51       1.40064      .   S
    C57    C53       1.39844      .   S
    C51    C55       1.40126  1_455   S
    C53    C55       1.40179      .   S
    H11    C45       1.08718      .   S
    C55    H15       1.08924      .   S
    C45    C41       1.39838      .   S
    C45    C47       1.39686      .   S
    C41    C42       1.40179      .   S
    H19    C61       1.08633      .   S
    C47    C36       1.39628      .   S
    C63    C61       1.40062      .   S
    C63    C67       1.40140      .   S
    C61    C70       1.39627      .   S
    C42    H8        1.08926      .   S
    C42    C38       1.40141      .   S
    H21    C67       1.08927      .   S
    C67    C64       1.40180      .   S
    C36    C38       1.40063      .   S
    C36    H6        1.08633      .   S
    C70    C68       1.39687      .   S
    C64    C68       1.39835      .   S
    C68    H22       1.08717      .   S
    H2     C30       1.08924      .   S
    C30    C28       1.40180      .   S
    C30    C26       1.40126  1_455   S
    C28    C32       1.39846      .   S
    C26    C24       1.40063      .   S
    C32    H4        1.08727      .   S
    C32    C34       1.39703      .   S
    C24    H0        1.08643      .   S
    C24    C34       1.39629  1_655   S
    C58    C48       1.39630  1_655   S
    C58    C56       1.39703      .   S
    H12    C48       1.08643      .   S
    H16    C56       1.08727      .   S
    C48    C50       1.40066      .   S
    C56    C52       1.39846      .   S
    C50    C54       1.40124  1_455   S
    C52    C54       1.40179      .   S
    H10    C44       1.08717      .   S
    C54    H14       1.08926      .   S
    C44    C40       1.39836      .   S
    C44    C46       1.39687      .   S
    H18    C60       1.08634      .   S
    C62    C60       1.40062      .   S
