# CIF file generated by openbabel 2.4.90, see http://openbabel.sf.net
data_I
_chemical_name_common ''
_cell_length_a 10.063
_cell_length_b 17.5475
_cell_length_c 20.135
_cell_angle_alpha 76.8877
_cell_angle_beta 85.078
_cell_angle_gamma 76.9058
_space_group_name_H-M_alt 'P 1'
_space_group_name_Hall 'P 1'
loop_
    _symmetry_equiv_pos_as_xyz
    x,y,z
loop_
    _atom_site_label
    _atom_site_type_symbol
    _atom_site_fract_x
    _atom_site_fract_y
    _atom_site_fract_z
    _atom_site_occupancy
    Ca0     Ca   0.51059   0.95652   0.09346   1.000
    Ca1     Ca   0.81314   0.54382   0.74548   1.000
    Ca2     Ca   0.81316   0.54382   0.24547   1.000
    Ca3     Ca   0.48941   0.04351   0.90653   1.000
    Ca4     Ca   0.48943   0.04350   0.40651   1.000
    Ca5     Ca   0.18684   0.45620   0.75450   1.000
    Ca6     Ca   0.18686   0.45620   0.25449   1.000
    Ca7     Ca   0.57826   0.75028   0.71202   1.000
    Ca8     Ca   0.57828   0.75029   0.21202   1.000
    Ca9     Ca   0.42171   0.24973   0.78796   1.000
    Ca10    Ca   0.42173   0.24973   0.28795   1.000
    Ca11    Ca   0.51057   0.95652   0.59347   1.000
