# CIF file generated by openbabel 2.4.90, see http://openbabel.sf.net
data_I
_chemical_name_common ''
_cell_length_a 10.063
_cell_length_b 17.5475
_cell_length_c 20.135
_cell_angle_alpha 76.8877
_cell_angle_beta 85.078
_cell_angle_gamma 76.9058
_space_group_name_H-M_alt 'P 1'
_space_group_name_Hall 'P 1'
loop_
    _symmetry_equiv_pos_as_xyz
    x,y,z
loop_
    _atom_site_label
    _atom_site_type_symbol
    _atom_site_fract_x
    _atom_site_fract_y
    _atom_site_fract_z
    _atom_site_occupancy
    Ca0     Ca   0.51059   0.95652   0.09346   1.000
    Ca1     Ca   0.81314   0.54382   0.74548   1.000
    Ca2     Ca   0.81316   0.54382   0.24547   1.000
    Ca3     Ca   0.48941   0.04351   0.90653   1.000
    Ca4     Ca   0.48943   0.04350   0.40651   1.000
    Ca5     Ca   0.18684   0.45620   0.75450   1.000
    Ca6     Ca   0.18686   0.45620   0.25449   1.000
    Ca7     Ca   0.57826   0.75028   0.71202   1.000
    Ca8     Ca   0.57828   0.75029   0.21202   1.000
    Ca9     Ca   0.42171   0.24973   0.78796   1.000
    Ca10    Ca   0.42173   0.24973   0.28795   1.000
    Ca11    Ca   0.51057   0.95652   0.59347   1.000
    C12     C    0.78320   0.88354   0.63527   1.000
    C13     C    0.78322   0.88354   0.13526   1.000
    C14     C    0.28446   0.87757   0.63587   1.000
    C15     C    0.28448   0.87757   0.13586   1.000
    C16     C    0.11712   0.62271   0.71355   1.000
    C17     C    0.11714   0.62271   0.21355   1.000
    C18     C    0.72793   0.61650   0.60939   1.000
    C19     C    0.72794   0.61650   0.10938   1.000
    C20     C    0.72980   0.62211   0.85874   1.000
    C21     C    0.72983   0.62211   0.35873   1.000
    C22     C    0.57125   0.87693   0.94195   1.000
    C23     C    0.57126   0.87693   0.44194   1.000
    C24     C    0.21678   0.11648   0.86472   1.000
    C25     C    0.21680   0.11647   0.36471   1.000
    C26     C    0.71553   0.12246   0.86411   1.000
    C27     C    0.71554   0.12246   0.36411   1.000
    C28     C    0.88286   0.37731   0.78642   1.000
    C29     C    0.88288   0.37731   0.28640   1.000
    C30     C    0.27203   0.38351   0.89060   1.000
    C31     C    0.27206   0.38352   0.39059   1.000
    C32     C    0.27018   0.37792   0.64125   1.000
    C33     C    0.27018   0.37792   0.14124   1.000
    C34     C    0.42874   0.12310   0.55805   1.000
    C35     C    0.42872   0.12310   0.05804   1.000
    O36     O    0.68388   0.84749   0.66109   1.000
    O37     O    0.68390   0.84749   0.16108   1.000
    O38     O    0.75783   0.95336   0.60007   1.000
    O39     O    0.75784   0.95336   0.10006   1.000
    O40     O    0.40245   0.83816   0.66051   1.000
    O41     O    0.40246   0.83815   0.16050   1.000
    O42     O    0.26929   0.94833   0.60258   1.000
    O43     O    0.26931   0.94833   0.10257   1.000
    O44     O    0.23978   0.58571   0.72240   1.000
    O45     O    0.23980   0.58572   0.22239   1.000
    O46     O    0.01707   0.58587   0.72665   1.000
    O47     O    0.01709   0.58587   0.22664   1.000
    O48     O    0.67734   0.65294   0.65891   1.000
    O49     O    0.67735   0.65294   0.15889   1.000
    O50     O    0.79762   0.54650   0.62222   1.000
    O51     O    0.79763   0.54651   0.12220   1.000
    O52     O    0.68210   0.66177   0.79948   1.000
    O53     O    0.68212   0.66177   0.29947   1.000
    O54     O    0.79586   0.55124   0.86649   1.000
    O55     O    0.79589   0.55125   0.36648   1.000
    O56     O    0.55293   0.91366   0.88060   1.000
    O57     O    0.55295   0.91366   0.38059   1.000
    O58     O    0.54580   0.91405   0.49174   1.000
    O59     O    0.54582   0.91405   0.00000   1.000
    O60     O    0.31611   0.15252   0.83890   1.000
    O61     O    0.31613   0.15252   0.33889   1.000
    O62     O    0.24216   0.04666   0.89992   1.000
    O63     O    0.24217   0.04666   0.39991   1.000
    O64     O    0.59754   0.16187   0.83947   1.000
    O65     O    0.59756   0.16187   0.33946   1.000
    O66     O    0.73069   0.05170   0.89742   1.000
    O67     O    0.73070   0.05170   0.39741   1.000
    O68     O    0.76020   0.41430   0.77758   1.000
    O69     O    0.76022   0.41431   0.27757   1.000
    O70     O    0.98291   0.41415   0.77332   1.000
    O71     O    0.98293   0.41415   0.27331   1.000
    O72     O    0.32260   0.34706   0.84109   1.000
    O73     O    0.32263   0.34706   0.34107   1.000
    O74     O    0.20239   0.45352   0.87777   1.000
    O75     O    0.20240   0.45352   0.37776   1.000
    O76     O    0.31789   0.33826   0.70051   1.000
    O77     O    0.31791   0.33826   0.20050   1.000
    O78     O    0.20411   0.44878   0.63349   1.000
    O79     O    0.20414   0.44878   0.13348   1.000
    O80     O    0.44705   0.08637   0.61940   1.000
    O81     O    0.44706   0.08637   0.11939   1.000
    O82     O    0.45419   0.08597   0.00825   1.000
    O83     O    0.45419   0.08597   0.50824   1.000
    Og84    Og   0.83094   0.86830   0.63973   1.000
    Og85    Og   0.83096   0.86830   0.13972   1.000
    Og86    Og   0.24588   0.86336   0.64009   1.000
    Og87    Og   0.24589   0.86337   0.14009   1.000
    Og88    Og   0.10687   0.65232   0.70471   1.000
    Og89    Og   0.10689   0.65232   0.20470   1.000
    Og90    Og   0.71902   0.63167   0.58550   1.000
    Og91    Og   0.71903   0.63167   0.08549   1.000
    Og92    Og   0.72090   0.63629   0.87803   1.000
    Og93    Og   0.72092   0.63629   0.37802   1.000
    Og94    Og   0.58900   0.84732   0.94715   1.000
    Og95    Og   0.58901   0.84732   0.44714   1.000
    Og96    Og   0.16905   0.13172   0.86026   1.000
    Og97    Og   0.16906   0.13172   0.36025   1.000
    Og98    Og   0.75411   0.13666   0.85989   1.000
    Og99    Og   0.75413   0.13666   0.35988   1.000
    Og100   Og   0.89311   0.34770   0.79527   1.000
    Og101   Og   0.89313   0.34770   0.29525   1.000
    Og102   Og   0.28095   0.36834   0.91449   1.000
    Og103   Og   0.28097   0.36835   0.41447   1.000
    Og104   Og   0.27908   0.36373   0.62195   1.000
    Og105   Og   0.27910   0.36373   0.12194   1.000
    Og106   Og   0.41099   0.15270   0.55284   1.000
    Og107   Og   0.41099   0.15270   0.05283   1.000
loop_
    _geom_bond_atom_site_label_1
    _geom_bond_atom_site_label_2
    _geom_bond_distance
    _geom_bond_site_symmetry_2
    _ccdc_geom_bond_type
    O59    Ca0       2.15039      .   S
    O59    C22       1.44045  1_554   S
    O82    C35       1.29285      .   S
    O82    Ca3       2.30751  1_554   S
    C35    O81       1.26463      .   S
    Ca0    O81       2.38655  1_565   S
    O39    C13       1.25053      .   S
    O43    C15       1.25240      .   S
    C19    O51       1.25052      .   S
    C19    O49       1.31034      .   S
    O79    C33       1.25209      .   S
    C13    O37       1.31049      .   S
    C15    O41       1.30668      .   S
    C33    O77       1.30725      .   S
    O49    Ca8       2.22035      .   S
    O37    Ca8       2.22075      .   S
    C17    O45       1.26445      .   S
    C17    O47       1.29351      .   S
    O45    Ca6       2.38529      .   S
    O47    Ca2       2.30765  1_455   S
    Ca2    O69       2.38528      .   S
    Ca6    O71       2.30764  1_455   S
    O71    C29       1.29349      .   S
    O69    C29       1.26447      .   S
    Ca10   O61       2.22075      .   S
    Ca10   O73       2.22031      .   S
    O53    C21       1.30724      .   S
    O61    C25       1.31049      .   S
    O65    C27       1.30666      .   S
    O73    C31       1.31035      .   S
    C21    O55       1.25208      .   S
    C27    O67       1.25240      .   S
    C25    O63       1.25050      .   S
    O75    C31       1.25052      .   S
    O57    Ca4       2.38644  1_565   S
    O57    C23       1.26464      .   S
    Ca4    O83       2.30756      .   S
    C23    O58       1.29326      .   S
    O58    Ca11      2.30757      .   S
    O83    C34       1.29325      .   S
    C34    O80       1.26463      .   S
    Ca11   O80       2.38648  1_565   S
    O38    C12       1.25051      .   S
    O42    C14       1.25240      .   S
    C18    O50       1.25053      .   S
    C18    O48       1.31034      .   S
    O78    C32       1.25209      .   S
    C12    O36       1.31049      .   S
    C14    O40       1.30668      .   S
    C32    O76       1.30724      .   S
    O48    Ca7       2.22033      .   S
    O36    Ca7       2.22076      .   S
    C16    O44       1.26447      .   S
    C16    O46       1.29349      .   S
    O44    Ca5       2.38527      .   S
    O46    Ca1       2.30767  1_455   S
    Ca1    O68       2.38529      .   S
    Ca5    O70       2.30762  1_455   S
    O70    C28       1.29349      .   S
    O68    C28       1.26445      .   S
    Ca9    O60       2.22074      .   S
    Ca9    O72       2.22032      .   S
    O52    C20       1.30724      .   S
    O60    C24       1.31049      .   S
    O64    C26       1.30667      .   S
    O72    C30       1.31033      .   S
    C20    O54       1.25210      .   S
    C26    O66       1.25240      .   S
    C24    O62       1.25049      .   S
    O74    C30       1.25051      .   S
    O56    Ca3       2.38649  1_565   S
    O56    C22       1.26463      .   S
    O36    Ca11      2.50382      .   S
    O37    Ca0       2.50384      .   S
    O38    Ca11      2.49048      .   S
    O39    Ca0       2.49045      .   S
    O40    Ca11      2.61142      .   S
    O40    Ca7       2.22192      .   S
    O41    Ca0       2.61144      .   S
    O41    Ca8       2.22191      .   S
    O42    Ca11      2.45340      .   S
    O43    Ca0       2.45340      .   S
    O46    Ca5       2.49696      .   S
    O47    Ca6       2.49696      .   S
    O48    Ca1       2.50627      .   S
    O49    Ca2       2.50632      .   S
    O50    Ca1       2.48935      .   S
    O51    Ca2       2.48938      .   S
    O52    Ca1       2.59674      .   S
    O52    Ca7       2.22358      .   S
    O53    Ca2       2.59671      .   S
    O53    Ca8       2.22357      .   S
    O54    Ca1       2.45864      .   S
    O55    Ca2       2.45862      .   S
    O58    Ca4       2.49830  1_565   S
    O59    Ca3       2.58530  1_564   S
    O60    Ca3       2.50381      .   S
    O61    Ca4       2.50374      .   S
    O62    Ca3       2.49052      .   S
    O63    Ca4       2.49050      .   S
    O64    Ca3       2.61162      .   S
    O64    Ca9       2.22191      .   S
    O65    Ca4       2.61159      .   S
    O65    Ca10      2.22191      .   S
    O66    Ca3       2.45338      .   S
    O67    Ca4       2.45336      .   S
    O70    Ca1       2.49693      .   S
    O71    Ca2       2.49693      .   S
    O72    Ca5       2.50635      .   S
    O73    Ca6       2.50634      .   S
    O74    Ca5       2.48940      .   S
    O75    Ca6       2.48936      .   S
    O76    Ca5       2.59659      .   S
    O76    Ca9       2.22358      .   S
    O77    Ca6       2.59662      .   S
    O77    Ca10      2.22360      .   S
    O78    Ca5       2.45861      .   S
    O79    Ca6       2.45861      .   S
    O82    Ca0       2.49804  1_545   S
    O83    Ca11      2.49829  1_545   S
    C12    Og84      0.49866      .   S
    C13    Og85      0.49865      .   S
    C14    Og86      0.49863      .   S
    C15    Og87      0.49862      .   S
    C16    Og88      0.49919      .   S
    C17    Og89      0.49919      .   S
    C18    Og90      0.49868      .   S
    C19    Og91      0.49869      .   S
    C20    Og92      0.49866      .   S
    C21    Og93      0.49865      .   S
    C22    Og94      0.49917      .   S
    C23    Og95      0.49918      .   S
    C24    Og96      0.49866      .   S
    C25    Og97      0.49866      .   S
    C26    Og98      0.49859      .   S
    C27    Og99      0.49860      .   S
    C28    Og100     0.49919      .   S
    C29    Og101     0.49919      .   S
    C30    Og102     0.49869      .   S
    C31    Og103     0.49868      .   S
    C32    Og104     0.49865      .   S
    C33    Og105     0.49866      .   S
    C34    Og106     0.49917      .   S
    C35    Og107     0.49917      .   S
