# CIF file generated by openbabel 2.4.90, see http://openbabel.sf.net
data_I
_chemical_name_common ''
_cell_length_a 10.063
_cell_length_b 17.5475
_cell_length_c 20.135
_cell_angle_alpha 76.8877
_cell_angle_beta 85.078
_cell_angle_gamma 76.9058
_space_group_name_H-M_alt 'P 1'
_space_group_name_Hall 'P 1'
loop_
    _symmetry_equiv_pos_as_xyz
    x,y,z
loop_
    _atom_site_label
    _atom_site_type_symbol
    _atom_site_fract_x
    _atom_site_fract_y
    _atom_site_fract_z
    _atom_site_occupancy
    C0      C    0.78320   0.88354   0.63527   1.000
    C1      C    0.78322   0.88354   0.13526   1.000
    C2      C    0.28446   0.87757   0.63587   1.000
    C3      C    0.28448   0.87757   0.13586   1.000
    C4      C    0.11712   0.62271   0.71355   1.000
    C5      C    0.11714   0.62271   0.21355   1.000
    C6      C    0.72793   0.61650   0.60939   1.000
    C7      C    0.72794   0.61650   0.10938   1.000
    C8      C    0.72980   0.62211   0.85874   1.000
    C9      C    0.72983   0.62211   0.35873   1.000
    C10     C    0.57125   0.87693   0.94195   1.000
    C11     C    0.57126   0.87693   0.44194   1.000
    C12     C    0.21678   0.11648   0.86472   1.000
    C13     C    0.21680   0.11647   0.36471   1.000
    C14     C    0.71553   0.12246   0.86411   1.000
    C15     C    0.71554   0.12246   0.36411   1.000
    C16     C    0.88286   0.37731   0.78642   1.000
    C17     C    0.88288   0.37731   0.28640   1.000
    C18     C    0.27203   0.38351   0.89060   1.000
    C19     C    0.27206   0.38352   0.39059   1.000
    C20     C    0.27018   0.37792   0.64125   1.000
    C21     C    0.27018   0.37792   0.14124   1.000
    C22     C    0.42874   0.12310   0.55805   1.000
    C23     C    0.42872   0.12310   0.05804   1.000
