# CIF file generated by openbabel 2.4.90, see http://openbabel.sf.net
data_I
_chemical_name_common ''
_cell_length_a 10.063
_cell_length_b 17.5475
_cell_length_c 20.135
_cell_angle_alpha 76.8877
_cell_angle_beta 85.078
_cell_angle_gamma 76.9058
_space_group_name_H-M_alt 'P 1'
_space_group_name_Hall 'P 1'
loop_
    _symmetry_equiv_pos_as_xyz
    x,y,z
loop_
    _atom_site_label
    _atom_site_type_symbol
    _atom_site_fract_x
    _atom_site_fract_y
    _atom_site_fract_z
    _atom_site_occupancy
    Zr0     Zr   0.51057   0.95652   0.59347   1.000
    Zr1     Zr   0.51059   0.95652   0.09346   1.000
    Zr2     Zr   0.81314   0.54382   0.74548   1.000
    Zr3     Zr   0.81316   0.54382   0.24547   1.000
    Zr4     Zr   0.48941   0.04351   0.90653   1.000
    Zr5     Zr   0.48943   0.04350   0.40651   1.000
    Zr6     Zr   0.18684   0.45620   0.75450   1.000
    Zr7     Zr   0.18686   0.45620   0.25449   1.000
    Zr8     Zr   0.57826   0.75028   0.71202   1.000
    Zr9     Zr   0.57828   0.75029   0.21202   1.000
    Zr10    Zr   0.42171   0.24973   0.78796   1.000
    Zr11    Zr   0.42173   0.24973   0.28795   1.000
    N12     N    0.67704   0.70511   0.47062   1.000
    N13     N    0.67704   0.70511   0.97316   1.000
    N14     N    0.32295   0.29491   0.02936   1.000
    N15     N    0.06055   0.79458   0.66100   1.000
    N16     N    0.06056   0.79458   0.16099   1.000
    N17     N    0.93944   0.20543   0.83898   1.000
    N18     N    0.32295   0.29491   0.52936   1.000
    N19     N    0.93946   0.20544   0.33897   1.000
    C20     C    0.26408   0.38832   0.15841   1.000
    O21     O    0.31695   0.34116   0.20131   1.000
    O22     O    0.28367   0.35705   0.11462   1.000
    C23     C    0.25837   0.10522   0.36784   1.000
    O24     O    0.15035   0.13880   0.35817   1.000
    O25     O    0.31365   0.15317   0.34063   1.000
    C26     C    0.68127   0.11201   0.36699   1.000
    O27     O    0.76885   0.14330   0.35768   1.000
    O28     O    0.59546   0.15891   0.34035   1.000
    C29     C    0.74165   0.89480   0.13213   1.000
    O30     O    0.84967   0.86121   0.14180   1.000
    O31     O    0.68637   0.84684   0.15934   1.000
    C32     C    0.55667   0.90154   0.94085   1.000
    O33     O    0.59706   0.83518   0.95115   1.000
    O34     O    0.54243   0.91841   0.99379   1.000
    C35     C    0.87534   0.40192   0.27909   1.000
    O36     O    0.98012   0.41855   0.27150   1.000
    O37     O    0.89710   0.33554   0.29921   1.000
    C38     C    0.31875   0.88802   0.13298   1.000
    O39     O    0.23117   0.85672   0.14228   1.000
    O40     O    0.40456   0.84112   0.15962   1.000
    C41     C    0.44332   0.09848   0.06189   1.000
    O42     O    0.40293   0.16484   0.05084   1.000
    O43     O    0.45756   0.08161   0.00964   1.000
    C44     C    0.25835   0.10522   0.86785   1.000
    O45     O    0.15033   0.13880   0.85818   1.000
    O46     O    0.31363   0.15317   0.84064   1.000
    C47     C    0.26406   0.38832   0.65842   1.000
    O48     O    0.31693   0.34116   0.70133   1.000
    O49     O    0.28365   0.35705   0.61462   1.000
    C50     C    0.12468   0.59810   0.22086   1.000
    O51     O    0.01990   0.58147   0.22846   1.000
    O52     O    0.10292   0.66448   0.20075   1.000
    C53     C    0.74164   0.89480   0.63214   1.000
    O54     O    0.84966   0.86121   0.64181   1.000
    O55     O    0.68636   0.84684   0.65935   1.000
    C56     C    0.31873   0.88802   0.63298   1.000
    O57     O    0.23115   0.85672   0.64229   1.000
    O58     O    0.40454   0.84112   0.65962   1.000
    C59     C    0.55667   0.90155   0.43809   1.000
    O60     O    0.59707   0.83518   0.44914   1.000
    O61     O    0.54243   0.91842   0.49035   1.000
    C62     C    0.26569   0.39470   0.36981   1.000
    O63     O    0.28494   0.36127   0.42385   1.000
    O64     O    0.31894   0.34655   0.34216   1.000
    C65     C    0.73429   0.60531   0.63017   1.000
    O66     O    0.68105   0.65346   0.65782   1.000
    O67     O    0.71505   0.63875   0.57613   1.000
    C68     C    0.73592   0.61171   0.84157   1.000
    O69     O    0.68305   0.65887   0.79866   1.000
    O70     O    0.71633   0.64298   0.88600   1.000
    C71     C    0.68125   0.11201   0.86700   1.000
    O72     O    0.76884   0.14330   0.85769   1.000
    O73     O    0.59544   0.15891   0.84036   1.000
    C74     C    0.26567   0.39470   0.86982   1.000
    O75     O    0.28493   0.36127   0.92386   1.000
    O76     O    0.31891   0.34655   0.84217   1.000
    C77     C    0.73431   0.60532   0.13016   1.000
    O78     O    0.71506   0.63875   0.07676   1.000
    O79     O    0.68106   0.65346   0.15781   1.000
    C80     C    0.44333   0.09848   0.56189   1.000
    O81     O    0.45757   0.08161   0.50964   1.000
    O82     O    0.40293   0.16484   0.55085   1.000
    C83     C    0.12466   0.59810   0.72087   1.000
    O84     O    0.01988   0.58147   0.72847   1.000
    O85     O    0.10290   0.66448   0.70075   1.000
    C86     C    0.87532   0.40192   0.77911   1.000
    O87     O    0.89708   0.33554   0.79922   1.000
    O88     O    0.98010   0.41855   0.77151   1.000
    C89     C    0.73595   0.61171   0.34156   1.000
    O90     O    0.71635   0.64298   0.38535   1.000
    O91     O    0.68307   0.65887   0.29865   1.000
    O92     O    0.53803   0.94011   0.93213   1.000
    O93     O    0.37099   0.90645   0.12274   1.000
    O94     O    0.24401   0.40659   0.18457   1.000
    O95     O    0.24519   0.41147   0.33838   1.000
    O96     O    0.14116   0.55955   0.23018   1.000
    O97     O    0.62901   0.09358   0.87724   1.000
    O98     O    0.32131   0.08838   0.87791   1.000
    O99     O    0.46196   0.05991   0.07027   1.000
    O100    O    0.67869   0.91163   0.12207   1.000
    O101    O    0.75482   0.58854   0.16158   1.000
    O102    O    0.85885   0.44047   0.26977   1.000
    O103    O    0.75601   0.59344   0.31539   1.000
    O104    O    0.32133   0.08838   0.37790   1.000
    O105    O    0.53804   0.94011   0.42971   1.000
    O106    O    0.62902   0.09358   0.37723   1.000
    O107    O    0.85883   0.44047   0.76979   1.000
    O108    O    0.46196   0.05991   0.57027   1.000
    O109    O    0.14114   0.55955   0.73019   1.000
    O110    O    0.37098   0.90645   0.62274   1.000
    O111    O    0.67868   0.91163   0.62208   1.000
    O112    O    0.75599   0.59344   0.81540   1.000
    O113    O    0.75480   0.58854   0.66160   1.000
    O114    O    0.24517   0.41147   0.83839   1.000
    O115    O    0.24399   0.40659   0.68458   1.000
loop_
    _geom_bond_atom_site_label_1
    _geom_bond_atom_site_label_2
    _geom_bond_distance
    _geom_bond_site_symmetry_2
    _ccdc_geom_bond_type
    C20    O21       1.12666      .   S
    Zr11   O21       2.23782      .   S
    C20    O22       1.12163      .   S
    N14    O22       2.19765      .   S
    C23    O24       1.12285      .   S
    N19    O24       2.19807  1_655   S
    C23    O25       1.12619      .   S
    Zr11   O25       2.23620      .   S
    C26    O27       1.12147      .   S
    N19    O27       2.19742      .   S
    C26    O28       1.12598      .   S
    Zr11   O28       2.23621      .   S
    C29    O30       1.12284      .   S
    N16    O30       2.19805  1_455   S
    C29    O31       1.12619      .   S
    Zr9    O31       2.23620      .   S
    C32    O33       1.12016      .   S
    N13    O33       2.19623      .   S
    C32    O34       1.15853      .   S
    Zr1    O34       2.23128  1_554   S
    C35    O36       1.14528      .   S
    Zr7    O36       2.29781  1_455   S
    C35    O37       1.11994      .   S
    N19    O37       2.19620      .   S
    C38    O39       1.12149      .   S
    N16    O39       2.19747      .   S
    C38    O40       1.12599      .   S
    Zr9    O40       2.23621      .   S
    C41    O42       1.11995      .   S
    N14    O42       2.19625      .   S
    C41    O43       1.14511      .   S
    Zr4    O43       2.29761  1_556   S
    C44    O45       1.12285      .   S
    N17    O45       2.19807  1_655   S
    C44    O46       1.12619      .   S
    Zr10   O46       2.23619      .   S
    C47    O48       1.12665      .   S
    Zr10   O48       2.23780      .   S
    C47    O49       1.12168      .   S
    N18    O49       2.19782      .   S
    C50    O51       1.14528      .   S
    Zr3    O51       2.29781  1_655   S
    C50    O52       1.11992      .   S
    N16    O52       2.19617      .   S
    C53    O54       1.12284      .   S
    N15    O54       2.19804  1_455   S
    C53    O55       1.12620      .   S
    Zr8    O55       2.23621      .   S
    C56    O57       1.12150      .   S
    N15    O57       2.19749      .   S
    C56    O58       1.12599      .   S
    Zr8    O58       2.23622      .   S
    C59    O60       1.11997      .   S
    N12    O60       2.19627      .   S
    C59    O61       1.14527      .   S
    Zr0    O61       2.29780      .   S
    C62    O63       1.12279      .   S
    N18    O63       2.19786      .   S
    C62    O64       1.12605      .   S
    Zr11   O64       2.23585      .   S
    C65    O66       1.12604      .   S
    Zr8    O66       2.23583      .   S
    C65    O67       1.12279      .   S
    N12    O67       2.19786      .   S
    C68    O69       1.12664      .   S
    Zr8    O69       2.23779      .   S
    C68    O70       1.13293      .   S
    N13    O70       2.23143      .   S
    C71    O72       1.12145      .   S
    N17    O72       2.19741      .   S
    C71    O73       1.12598      .   S
    Zr10   O73       2.23621      .   S
    C74    O75       1.12275      .   S
    N14    O75       2.19774  1_554   S
    C74    O76       1.12604      .   S
    Zr10   O76       2.23584      .   S
    C77    O78       1.11169      .   S
    N13    O78       2.16477  1_556   S
    C77    O79       1.12605      .   S
    Zr9    O79       2.23586      .   S
    C80    O81       1.14527      .   S
    Zr5    O81       2.29780      .   S
    C80    O82       1.11995      .   S
    N18    O82       2.19624      .   S
    C83    O84       1.14528      .   S
    Zr2    O84       2.29782  1_655   S
    C83    O85       1.11993      .   S
    N15    O85       2.19618      .   S
    C86    O87       1.11993      .   S
    N17    O87       2.19619      .   S
    C86    O88       1.14527      .   S
    Zr6    O88       2.29780  1_455   S
    C89    O90       1.12168      .   S
    N12    O90       2.19782      .   S
    C89    O91       1.12664      .   S
    Zr9    O91       2.23778      .   S
    C32    O92       0.64671      .   S
    Zr4    O92       1.73594  1_545   S
    C38    O93       0.67208      .   S
    Zr1    O93       1.80966      .   S
    Zr7    O94       1.80578      .   S
    C20    O94       0.67100      .   S
    Zr7    O95       1.78142      .   S
    C62    O95       0.66332      .   S
    Zr7    O96       1.73143      .   S
    C50    O96       0.64596      .   S
    Zr4    O97       1.80973      .   S
    C71    O97       0.67211      .   S
    Zr4    O98       1.78089      .   S
    C44    O98       0.66317      .   S
    Zr1    O99       1.73255  1_565   S
    C41    O99       0.64634      .   S
    Zr1    O100      1.78088      .   S
    C29    O100      0.66318      .   S
    Zr3    O101      1.78142      .   S
    C77    O101      0.66331      .   S
    Zr3    O102      1.73142      .   S
    C35    O102      0.64596      .   S
    Zr3    O103      1.80583      .   S
    C89    O103      0.67102      .   S
    C23    O104      0.66317      .   S
    Zr5    O104      1.78085      .   S
    Zr5    O105      1.73253  1_545   S
    C59    O105      0.64634      .   S
    Zr5    O106      1.80971      .   S
    C26    O106      0.67210      .   S
    C86    O107      0.64595      .   S
    Zr2    O107      1.73142      .   S
    C80    O108      0.64634      .   S
    Zr0    O108      1.73254  1_565   S
    C83    O109      0.64595      .   S
    Zr6    O109      1.73142      .   S
    C56    O110      0.67208      .   S
    Zr0    O110      1.80965      .   S
    Zr0    O111      1.78087      .   S
    C53    O111      0.66317      .   S
    Zr2    O112      1.80585      .   S
    C68    O112      0.67103      .   S
    Zr2    O113      1.78139      .   S
    C65    O113      0.66331      .   S
    Zr6    O114      1.78144      .   S
    C74    O114      0.66332      .   S
    Zr6    O115      1.80577      .   S
    C47    O115      0.67100      .   S
