# CIF file generated by openbabel 2.4.90, see http://openbabel.sf.net
data_I
_chemical_name_common ''
_cell_length_a 10.063
_cell_length_b 17.5475
_cell_length_c 20.135
_cell_angle_alpha 76.8877
_cell_angle_beta 85.078
_cell_angle_gamma 76.9058
_space_group_name_H-M_alt 'P 1'
_space_group_name_Hall 'P 1'
loop_
    _symmetry_equiv_pos_as_xyz
    x,y,z
loop_
    _atom_site_label
    _atom_site_type_symbol
    _atom_site_fract_x
    _atom_site_fract_y
    _atom_site_fract_z
    _atom_site_occupancy
    Zr0     Zr   0.51057   0.95652   0.59347   1.000
    Zr1     Zr   0.51059   0.95652   0.09346   1.000
    Zr2     Zr   0.81314   0.54382   0.74548   1.000
    Zr3     Zr   0.81316   0.54382   0.24547   1.000
    Zr4     Zr   0.48941   0.04351   0.90653   1.000
    Zr5     Zr   0.48943   0.04350   0.40651   1.000
    Zr6     Zr   0.18684   0.45620   0.75450   1.000
    Zr7     Zr   0.18686   0.45620   0.25449   1.000
    Zr8     Zr   0.57826   0.75028   0.71202   1.000
    Zr9     Zr   0.57828   0.75029   0.21202   1.000
    Zr10    Zr   0.42171   0.24973   0.78796   1.000
    Zr11    Zr   0.42173   0.24973   0.28795   1.000
    Zr12    Zr   0.78320   0.88354   0.63527   1.000
    Zr13    Zr   0.78322   0.88354   0.13526   1.000
    Zr14    Zr   0.28446   0.87757   0.63587   1.000
    Zr15    Zr   0.28448   0.87757   0.13586   1.000
    Zr16    Zr   0.11712   0.62271   0.71355   1.000
    Zr17    Zr   0.11714   0.62271   0.21355   1.000
    Zr18    Zr   0.72793   0.61650   0.60939   1.000
    Zr19    Zr   0.72794   0.61650   0.10938   1.000
    Zr20    Zr   0.72980   0.62211   0.85874   1.000
    Zr21    Zr   0.72983   0.62211   0.35873   1.000
    Zr22    Zr   0.57125   0.87693   0.94195   1.000
    Zr23    Zr   0.57126   0.87693   0.44194   1.000
    Zr24    Zr   0.21678   0.11648   0.86472   1.000
    Zr25    Zr   0.21680   0.11647   0.36471   1.000
    Zr26    Zr   0.71553   0.12246   0.86411   1.000
    Zr27    Zr   0.71554   0.12246   0.36411   1.000
    Zr28    Zr   0.88286   0.37731   0.78642   1.000
    Zr29    Zr   0.88288   0.37731   0.28640   1.000
    Zr30    Zr   0.27203   0.38351   0.89060   1.000
    Zr31    Zr   0.27206   0.38352   0.39059   1.000
    Zr32    Zr   0.27018   0.37792   0.64125   1.000
    Zr33    Zr   0.27018   0.37792   0.14124   1.000
    Zr34    Zr   0.42874   0.12310   0.55805   1.000
    Zr35    Zr   0.42872   0.12310   0.05804   1.000
    Zr36    Zr   0.68388   0.84749   0.66109   1.000
    Zr37    Zr   0.68390   0.84749   0.16108   1.000
    Zr38    Zr   0.75783   0.95336   0.60007   1.000
    Zr39    Zr   0.75784   0.95336   0.10006   1.000
    Zr40    Zr   0.40245   0.83816   0.66051   1.000
    Zr41    Zr   0.40246   0.83815   0.16050   1.000
    Zr42    Zr   0.26929   0.94833   0.60258   1.000
    Zr43    Zr   0.26931   0.94833   0.10257   1.000
    Zr44    Zr   0.23978   0.58571   0.72240   1.000
    Zr45    Zr   0.23980   0.58572   0.22239   1.000
    Zr46    Zr   0.01707   0.58587   0.72665   1.000
    Zr47    Zr   0.01709   0.58587   0.22664   1.000
    Zr48    Zr   0.67734   0.65294   0.65891   1.000
    Zr49    Zr   0.67735   0.65294   0.15889   1.000
    Zr50    Zr   0.79762   0.54650   0.62222   1.000
    Zr51    Zr   0.79763   0.54651   0.12220   1.000
    Zr52    Zr   0.68210   0.66177   0.79948   1.000
    Zr53    Zr   0.68212   0.66177   0.29947   1.000
    Zr54    Zr   0.79586   0.55124   0.86649   1.000
    Zr55    Zr   0.79589   0.55125   0.36648   1.000
    Zr56    Zr   0.55293   0.91366   0.88060   1.000
    Zr57    Zr   0.55295   0.91366   0.38059   1.000
    Zr58    Zr   0.54580   0.91405   0.49174   1.000
    Zr59    Zr   0.54582   0.91405   0.00000   1.000
    Zr60    Zr   0.31611   0.15252   0.83890   1.000
    Zr61    Zr   0.31613   0.15252   0.33889   1.000
    Zr62    Zr   0.24216   0.04666   0.89992   1.000
    Zr63    Zr   0.24217   0.04666   0.39991   1.000
    Zr64    Zr   0.59754   0.16187   0.83947   1.000
    Zr65    Zr   0.59756   0.16187   0.33946   1.000
    Zr66    Zr   0.73069   0.05170   0.89742   1.000
    Zr67    Zr   0.73070   0.05170   0.39741   1.000
    Zr68    Zr   0.76020   0.41430   0.77758   1.000
    Zr69    Zr   0.76022   0.41431   0.27757   1.000
    Zr70    Zr   0.98291   0.41415   0.77332   1.000
    Zr71    Zr   0.98293   0.41415   0.27331   1.000
    Zr72    Zr   0.32260   0.34706   0.84109   1.000
    Zr73    Zr   0.32263   0.34706   0.34107   1.000
    Zr74    Zr   0.20239   0.45352   0.87777   1.000
    Zr75    Zr   0.20240   0.45352   0.37776   1.000
    Zr76    Zr   0.31789   0.33826   0.70051   1.000
    Zr77    Zr   0.31791   0.33826   0.20050   1.000
    Zr78    Zr   0.20411   0.44878   0.63349   1.000
    Zr79    Zr   0.20414   0.44878   0.13348   1.000
    Zr80    Zr   0.44705   0.08637   0.61940   1.000
    Zr81    Zr   0.44706   0.08637   0.11939   1.000
    Zr82    Zr   0.45419   0.08597   0.00825   1.000
    Zr83    Zr   0.45419   0.08597   0.50824   1.000
    O84     O    0.52820   0.93529   0.04673   1.000
    O85     O    0.55853   0.89549   0.97097   1.000
    O86     O    0.44145   0.10453   0.03315   1.000
    O87     O    0.47180   0.06474   0.95739   1.000
    O88     O    0.43789   0.10473   0.08871   1.000
    O89     O    0.47883   0.02144   0.10642   1.000
    O90     O    0.77053   0.91845   0.11766   1.000
    O91     O    0.27689   0.91295   0.11922   1.000
    O92     O    0.76279   0.58150   0.11579   1.000
    O93     O    0.70265   0.63472   0.13414   1.000
    O94     O    0.23716   0.41335   0.13736   1.000
    O95     O    0.73356   0.86552   0.14817   1.000
    O96     O    0.34347   0.85786   0.14818   1.000
    O97     O    0.29404   0.35809   0.17087   1.000
    O98     O    0.62782   0.70161   0.18546   1.000
    O99     O    0.63109   0.79889   0.18655   1.000
    O100    O    0.17847   0.60421   0.21797   1.000
    O101    O    0.06712   0.60429   0.22009   1.000
    O102    O    0.21333   0.52096   0.23844   1.000
    O103    O    0.91512   0.56485   0.23606   1.000
    O104    O    0.78669   0.47906   0.26152   1.000
    O105    O    0.08490   0.43517   0.26390   1.000
    O106    O    0.93291   0.39573   0.27985   1.000
    O107    O    0.82155   0.39581   0.28199   1.000
    O108    O    0.36893   0.20113   0.31342   1.000
    O109    O    0.37218   0.29840   0.31451   1.000
    O110    O    0.70597   0.64194   0.32910   1.000
    O111    O    0.26646   0.13450   0.35180   1.000
    O112    O    0.65655   0.14217   0.35178   1.000
    O113    O    0.29734   0.36529   0.36583   1.000
    O114    O    0.76286   0.58668   0.36260   1.000
    O115    O    0.72312   0.08708   0.38076   1.000
    O116    O    0.22949   0.08157   0.38231   1.000
    O117    O    0.23723   0.41852   0.38417   1.000
    O118    O    0.52119   0.97858   0.39355   1.000
    O119    O    0.56211   0.89529   0.41126   1.000
    O120    O    0.47181   0.06474   0.45738   1.000
    O121    O    0.55853   0.89549   0.46684   1.000
    O122    O    0.52819   0.93529   0.54261   1.000
    O123    O    0.44147   0.10454   0.53314   1.000
    O124    O    0.43789   0.10473   0.58872   1.000
    O125    O    0.47881   0.02144   0.60643   1.000
    O126    O    0.77052   0.91845   0.61767   1.000
    O127    O    0.27688   0.91295   0.61922   1.000
    O128    O    0.76277   0.58150   0.61580   1.000
    O129    O    0.70263   0.63472   0.63415   1.000
    O130    O    0.23715   0.41335   0.63737   1.000
    O131    O    0.73354   0.86552   0.64818   1.000
    O132    O    0.34345   0.85786   0.64819   1.000
    O133    O    0.29403   0.35809   0.67088   1.000
    O134    O    0.62780   0.70161   0.68547   1.000
    O135    O    0.63107   0.79889   0.68656   1.000
    O136    O    0.17845   0.60421   0.71798   1.000
    O137    O    0.06710   0.60429   0.72010   1.000
    O138    O    0.21331   0.52096   0.73845   1.000
    O139    O    0.91510   0.56485   0.73607   1.000
    O140    O    0.78667   0.47906   0.76153   1.000
    O141    O    0.08487   0.43517   0.76391   1.000
    O142    O    0.93288   0.39573   0.77987   1.000
    O143    O    0.82153   0.39581   0.78200   1.000
    O144    O    0.36891   0.20113   0.81343   1.000
    O145    O    0.37215   0.29840   0.81452   1.000
    O146    O    0.70595   0.64194   0.82911   1.000
    O147    O    0.26644   0.13450   0.85181   1.000
    O148    O    0.65654   0.14217   0.85179   1.000
    O149    O    0.29731   0.36529   0.86584   1.000
    O150    O    0.76283   0.58668   0.86262   1.000
    O151    O    0.72311   0.08708   0.88077   1.000
    O152    O    0.22947   0.08157   0.88232   1.000
    O153    O    0.23721   0.41851   0.88419   1.000
    O154    O    0.52117   0.97858   0.89356   1.000
    O155    O    0.56209   0.89529   0.91127   1.000
    O156    O    0.59723   0.90201   0.62728   1.000
    O157    O    0.59724   0.90201   0.12727   1.000
    O158    O    0.63420   0.95494   0.59677   1.000
    O159    O    0.63422   0.95494   0.09676   1.000
    O160    O    0.45651   0.89734   0.62699   1.000
    O161    O    0.49036   0.79422   0.68626   1.000
    O162    O    0.45653   0.89734   0.12698   1.000
    O163    O    0.49037   0.79422   0.18626   1.000
    O164    O    0.38993   0.95243   0.59803   1.000
    O165    O    0.38995   0.95242   0.09802   1.000
    O166    O    0.10195   0.52104   0.74058   1.000
    O167    O    0.10197   0.52104   0.24057   1.000
    O168    O    0.74524   0.59838   0.70219   1.000
    O169    O    0.74526   0.59838   0.20218   1.000
    O170    O    0.80538   0.54516   0.68385   1.000
    O171    O    0.80540   0.54516   0.18384   1.000
    O172    O    0.74762   0.60279   0.77248   1.000
    O173    O    0.63018   0.70603   0.75575   1.000
    O174    O    0.74764   0.60279   0.27247   1.000
    O175    O    0.63020   0.70603   0.25574   1.000
    O176    O    0.80450   0.54753   0.80599   1.000
    O177    O    0.80452   0.54753   0.30597   1.000
    O178    O    0.51762   0.97878   0.44913   1.000
    O179    O    0.51761   0.97878   0.95326   1.000
    O180    O    0.40276   0.09801   0.87271   1.000
    O181    O    0.40278   0.09801   0.37270   1.000
    O182    O    0.36578   0.04508   0.90322   1.000
    O183    O    0.36580   0.04508   0.40321   1.000
    O184    O    0.54348   0.10269   0.87300   1.000
    O185    O    0.50963   0.20580   0.81372   1.000
    O186    O    0.54350   0.10269   0.37299   1.000
    O187    O    0.50965   0.20580   0.31370   1.000
    O188    O    0.61005   0.04760   0.90197   1.000
    O189    O    0.61006   0.04760   0.40196   1.000
    O190    O    0.89802   0.47898   0.75940   1.000
    O191    O    0.89805   0.47898   0.25939   1.000
    O192    O    0.25472   0.40163   0.79779   1.000
    O193    O    0.25474   0.40163   0.29778   1.000
    O194    O    0.19461   0.45486   0.81614   1.000
    O195    O    0.19463   0.45486   0.31613   1.000
    O196    O    0.25236   0.39723   0.72751   1.000
    O197    O    0.36980   0.29400   0.74423   1.000
    O198    O    0.25238   0.39723   0.22750   1.000
    O199    O    0.36982   0.29400   0.24422   1.000
    O200    O    0.19548   0.45249   0.69400   1.000
    O201    O    0.19550   0.45249   0.19399   1.000
    O202    O    0.48239   0.02124   0.05086   1.000
    O203    O    0.48238   0.02125   0.55086   1.000
    N204    N    0.67704   0.70511   0.47062   1.000
    O205    O    0.69676   0.67425   0.42915   1.000
    O206    O    0.63746   0.76882   0.46018   1.000
    O207    O    0.69580   0.67218   0.52209   1.000
    N208    N    0.67704   0.70511   0.97316   1.000
    O209    O    0.69581   0.67218   0.02336   1.000
    O210    O    0.63746   0.76882   0.96146   1.000
    O211    O    0.69674   0.67425   0.93042   1.000
    N212    N    0.32295   0.29491   0.02936   1.000
    O213    O    0.30325   0.32578   0.07083   1.000
    O214    O    0.36254   0.23121   0.03979   1.000
    O215    O    0.30419   0.32783   0.97789   1.000
    N216    N    0.06055   0.79458   0.66100   1.000
    O217    O    0.14357   0.82542   0.65160   1.000
    O218    O    0.08115   0.73085   0.68064   1.000
    O219    O    0.95768   0.82763   0.65148   1.000
    N220    N    0.06056   0.79458   0.16099   1.000
    O221    O    0.95769   0.82763   0.15147   1.000
    O222    O    0.14358   0.82542   0.15159   1.000
    O223    O    0.08117   0.73085   0.18063   1.000
    N224    N    0.93944   0.20543   0.83898   1.000
    O225    O    0.04231   0.17239   0.84850   1.000
    O226    O    0.91884   0.26916   0.81934   1.000
    O227    O    0.85642   0.17460   0.84838   1.000
    N228    N    0.32295   0.29491   0.52936   1.000
    O229    O    0.36253   0.23121   0.53980   1.000
    O230    O    0.30324   0.32578   0.57083   1.000
    O231    O    0.30419   0.32783   0.47789   1.000
    N232    N    0.93946   0.20544   0.33897   1.000
    O233    O    0.85644   0.17460   0.34837   1.000
    O234    O    0.04233   0.17239   0.34850   1.000
    O235    O    0.91886   0.26917   0.31933   1.000
loop_
    _geom_bond_atom_site_label_1
    _geom_bond_atom_site_label_2
    _geom_bond_distance
    _geom_bond_site_symmetry_2
    _ccdc_geom_bond_type
    Zr59   O84       1.07520      .   S
    Zr1    O84       1.07520      .   S
    Zr59   O85       0.72022  1_554   S
    Zr22   O85       0.72022      .   S
    Zr82   O86       0.64642      .   S
    Zr35   O86       0.64642      .   S
    Zr82   O87       1.15375  1_554   S
    Zr4    O87       1.15375      .   S
    Zr35   O88       0.63232      .   S
    Zr81   O88       0.63232      .   S
    Zr1    O89       1.19327  1_565   S
    Zr81   O89       1.19327      .   S
    Zr39   O90       0.62526      .   S
    Zr13   O90       0.62526      .   S
    Zr43   O91       0.62620      .   S
    Zr15   O91       0.62620      .   S
    Zr19   O92       0.62526      .   S
    Zr51   O92       0.62526      .   S
    Zr19   O93       0.65517      .   S
    Zr49   O93       0.65517      .   S
    Zr79   O94       0.62605      .   S
    Zr33   O94       0.62605      .   S
    Zr13   O95       0.65524      .   S
    Zr37   O95       0.65524      .   S
    Zr15   O96       0.65334      .   S
    Zr41   O96       0.65334      .   S
    Zr33   O97       0.65362      .   S
    Zr77   O97       0.65362      .   S
    Zr49   O98       1.11017      .   S
    Zr9    O98       1.11017      .   S
    Zr37   O99       1.11038      .   S
    Zr9    O99       1.11038      .   S
    Zr17   O100      0.63222      .   S
    Zr45   O100      0.63222      .   S
    Zr17   O101      0.64675      .   S
    Zr47   O101      0.64675      .   S
    Zr45   O102      1.19264      .   S
    Zr7    O102      1.19264      .   S
    Zr47   O103      1.15382  1_455   S
    Zr3    O103      1.15382      .   S
    Zr3    O104      1.19264      .   S
    Zr69   O104      1.19264      .   S
    Zr7    O105      1.15382      .   S
    Zr71   O105      1.15382  1_655   S
    Zr71   O106      0.64675      .   S
    Zr29   O106      0.64675      .   S
    Zr69   O107      0.63223      .   S
    Zr29   O107      0.63223      .   S
    Zr11   O108      1.11037      .   S
    Zr61   O108      1.11037      .   S
    Zr11   O109      1.11016      .   S
    Zr73   O109      1.11016      .   S
    Zr53   O110      0.65362      .   S
    Zr21   O110      0.65362      .   S
    Zr61   O111      0.65525      .   S
    Zr25   O111      0.65525      .   S
    Zr65   O112      0.65333      .   S
    Zr27   O112      0.65333      .   S
    Zr73   O113      0.65518      .   S
    Zr31   O113      0.65518      .   S
    Zr21   O114      0.62604      .   S
    Zr55   O114      0.62604      .   S
    Zr27   O115      0.62620      .   S
    Zr67   O115      0.62620      .   S
    Zr25   O116      0.62525      .   S
    Zr63   O116      0.62525      .   S
    Zr75   O117      0.62526      .   S
    Zr31   O117      0.62526      .   S
    Zr57   O118      1.19322      .   S
    Zr5    O118      1.19322  1_545   S
    Zr57   O119      0.63232      .   S
    Zr23   O119      0.63232      .   S
    Zr5    O120      1.15378      .   S
    Zr83   O120      1.15378      .   S
    Zr23   O121      0.64663      .   S
    Zr58   O121      0.64663      .   S
    Zr58   O122      1.15378      .   S
    Zr0    O122      1.15378      .   S
    Zr83   O123      0.64663      .   S
    Zr34   O123      0.64663      .   S
    Zr34   O124      0.63231      .   S
    Zr80   O124      0.63231      .   S
    Zr0    O125      1.19324  1_565   S
    Zr80   O125      1.19324      .   S
    Zr38   O126      0.62525      .   S
    Zr12   O126      0.62525      .   S
    Zr42   O127      0.62620      .   S
    Zr14   O127      0.62620      .   S
    Zr18   O128      0.62526      .   S
    Zr50   O128      0.62526      .   S
    Zr18   O129      0.65517      .   S
    Zr48   O129      0.65517      .   S
    Zr78   O130      0.62604      .   S
    Zr32   O130      0.62604      .   S
    Zr12   O131      0.65524      .   S
    Zr36   O131      0.65524      .   S
    Zr14   O132      0.65334      .   S
    Zr40   O132      0.65334      .   S
    Zr32   O133      0.65362      .   S
    Zr76   O133      0.65362      .   S
    Zr48   O134      1.11016      .   S
    Zr8    O134      1.11016      .   S
    Zr36   O135      1.11038      .   S
    Zr8    O135      1.11038      .   S
    Zr16   O136      0.63223      .   S
    Zr44   O136      0.63223      .   S
    Zr16   O137      0.64674      .   S
    Zr46   O137      0.64674      .   S
    Zr44   O138      1.19263      .   S
    Zr6    O138      1.19263      .   S
    Zr46   O139      1.15383  1_455   S
    Zr2    O139      1.15383      .   S
    Zr2    O140      1.19264      .   S
    Zr68   O140      1.19264      .   S
    Zr6    O141      1.15381      .   S
    Zr70   O141      1.15381  1_655   S
    Zr70   O142      0.64675      .   S
    Zr28   O142      0.64675      .   S
    Zr68   O143      0.63223      .   S
    Zr28   O143      0.63223      .   S
    Zr10   O144      1.11037      .   S
    Zr60   O144      1.11037      .   S
    Zr10   O145      1.11016      .   S
    Zr72   O145      1.11016      .   S
    Zr52   O146      0.65362      .   S
    Zr20   O146      0.65362      .   S
    Zr60   O147      0.65524      .   S
    Zr24   O147      0.65524      .   S
    Zr64   O148      0.65334      .   S
    Zr26   O148      0.65334      .   S
    Zr72   O149      0.65516      .   S
    Zr30   O149      0.65516      .   S
    Zr20   O150      0.62605      .   S
    Zr54   O150      0.62605      .   S
    Zr26   O151      0.62620      .   S
    Zr66   O151      0.62620      .   S
    Zr24   O152      0.62525      .   S
    Zr62   O152      0.62525      .   S
    Zr74   O153      0.62526      .   S
    Zr30   O153      0.62526      .   S
    Zr56   O154      1.19324      .   S
    Zr4    O154      1.19324  1_545   S
    Zr56   O155      0.63231      .   S
    Zr22   O155      0.63231      .   S
    Zr36   O156      1.25191      .   S
    Zr0    O156      1.25191      .   S
    Zr37   O157      1.25192      .   S
    Zr1    O157      1.25192      .   S
    Zr38   O158      1.24524      .   S
    Zr0    O158      1.24524      .   S
    Zr39   O159      1.24523      .   S
    Zr1    O159      1.24523      .   S
    Zr40   O160      1.30571      .   S
    Zr0    O160      1.30571      .   S
    Zr40   O161      1.11096      .   S
    Zr8    O161      1.11096      .   S
    Zr41   O162      1.30572      .   S
    Zr1    O162      1.30572      .   S
    Zr41   O163      1.11095      .   S
    Zr9    O163      1.11095      .   S
    Zr42   O164      1.22670      .   S
    Zr0    O164      1.22670      .   S
    Zr43   O165      1.22670      .   S
    Zr1    O165      1.22670      .   S
    Zr46   O166      1.24848      .   S
    Zr6    O166      1.24848      .   S
    Zr47   O167      1.24848      .   S
    Zr7    O167      1.24848      .   S
    Zr48   O168      1.25314      .   S
    Zr2    O168      1.25314      .   S
    Zr49   O169      1.25316      .   S
    Zr3    O169      1.25316      .   S
    Zr50   O170      1.24468      .   S
    Zr2    O170      1.24468      .   S
    Zr51   O171      1.24469      .   S
    Zr3    O171      1.24469      .   S
    Zr52   O172      1.29837      .   S
    Zr2    O172      1.29837      .   S
    Zr52   O173      1.11179      .   S
    Zr8    O173      1.11179      .   S
    Zr53   O174      1.29836      .   S
    Zr3    O174      1.29836      .   S
    Zr53   O175      1.11178      .   S
    Zr9    O175      1.11178      .   S
    Zr54   O176      1.22932      .   S
    Zr2    O176      1.22932      .   S
    Zr55   O177      1.22931      .   S
    Zr3    O177      1.22931      .   S
    Zr58   O178      1.24915      .   S
    Zr5    O178      1.24915  1_545   S
    Zr59   O179      1.29265  1_554   S
    Zr4    O179      1.29265  1_545   S
    Zr60   O180      1.25191      .   S
    Zr4    O180      1.25191      .   S
    Zr61   O181      1.25187      .   S
    Zr5    O181      1.25187      .   S
    Zr62   O182      1.24526      .   S
    Zr4    O182      1.24526      .   S
    Zr63   O183      1.24525      .   S
    Zr5    O183      1.24525      .   S
    Zr64   O184      1.30581      .   S
    Zr4    O184      1.30581      .   S
    Zr64   O185      1.11095      .   S
    Zr10   O185      1.11095      .   S
    Zr65   O186      1.30579      .   S
    Zr5    O186      1.30579      .   S
    Zr65   O187      1.11096      .   S
    Zr11   O187      1.11096      .   S
    Zr66   O188      1.22669      .   S
    Zr4    O188      1.22669      .   S
    Zr67   O189      1.22668      .   S
    Zr5    O189      1.22668      .   S
    Zr70   O190      1.24847      .   S
    Zr2    O190      1.24847      .   S
    Zr71   O191      1.24847      .   S
    Zr3    O191      1.24847      .   S
    Zr72   O192      1.25318      .   S
    Zr6    O192      1.25318      .   S
    Zr73   O193      1.25317      .   S
    Zr7    O193      1.25317      .   S
    Zr74   O194      1.24470      .   S
    Zr6    O194      1.24470      .   S
    Zr75   O195      1.24468      .   S
    Zr7    O195      1.24468      .   S
    Zr76   O196      1.29829      .   S
    Zr6    O196      1.29829      .   S
    Zr76   O197      1.11179      .   S
    Zr10   O197      1.11179      .   S
    Zr77   O198      1.29831      .   S
    Zr7    O198      1.29831      .   S
    Zr77   O199      1.11180      .   S
    Zr11   O199      1.11180      .   S
    Zr78   O200      1.22930      .   S
    Zr6    O200      1.22930      .   S
    Zr79   O201      1.22931      .   S
    Zr7    O201      1.22931      .   S
    Zr82   O202      1.24902      .   S
    Zr1    O202      1.24902  1_565   S
    Zr83   O203      1.24914      .   S
    Zr0    O203      1.24914  1_565   S
    N204   O205      1.07621      .   S
    Zr21   O205      1.82418      .   S
    N204   O206      1.07632      .   S
    Zr23   O206      1.82502      .   S
    N204   O207      1.07515      .   S
    Zr18   O207      1.82317      .   S
    N208   O209      1.05322  1_556   S
    Zr19   O209      1.80120      .   S
    N208   O210      1.07641      .   S
    Zr22   O210      1.82511      .   S
    N208   O211      1.09853      .   S
    Zr20   O211      1.84651      .   S
    N212   O213      1.07609      .   S
    Zr33   O213      1.82408      .   S
    N212   O214      1.07631      .   S
    Zr35   O214      1.82499      .   S
    N212   O215      1.07506  1_554   S
    Zr30   O215      1.82309      .   S
    N216   O217      1.07605      .   S
    Zr14   O217      1.82399      .   S
    N216   O218      1.07626      .   S
    Zr16   O218      1.82498      .   S
    N216   O219      1.07528  1_455   S
    Zr12   O219      1.82326      .   S
    N220   O221      1.07528  1_455   S
    Zr13   O221      1.82325      .   S
    N220   O222      1.07604      .   S
    Zr15   O222      1.82396      .   S
    N220   O223      1.07626      .   S
    Zr17   O223      1.82498      .   S
    N224   O225      1.07529  1_655   S
    Zr24   O225      1.82328      .   S
    N224   O226      1.07627      .   S
    Zr28   O226      1.82500      .   S
    N224   O227      1.07602      .   S
    Zr26   O227      1.82390      .   S
    N228   O229      1.07631      .   S
    Zr34   O229      1.82499      .   S
    N228   O230      1.07621      .   S
    Zr32   O230      1.82418      .   S
    N228   O231      1.07515      .   S
    Zr31   O231      1.82316      .   S
    N232   O233      1.07602      .   S
    Zr27   O233      1.82392      .   S
    N232   O234      1.07529  1_655   S
    Zr25   O234      1.82328      .   S
    N232   O235      1.07627      .   S
    Zr29   O235      1.82499      .   S
