# CIF file generated by openbabel 2.4.90, see http://openbabel.sf.net
data_I
_chemical_name_common ''
_cell_length_a 13.463
_cell_length_b 13.224
_cell_length_c 13.238
_cell_angle_alpha 91.965
_cell_angle_beta 98.987
_cell_angle_gamma 81.006
_space_group_name_H-M_alt 'P 1'
_space_group_name_Hall 'P 1'
loop_
    _symmetry_equiv_pos_as_xyz
    x,y,z
loop_
    _atom_site_label
    _atom_site_type_symbol
    _atom_site_fract_x
    _atom_site_fract_y
    _atom_site_fract_z
    _atom_site_occupancy
    C0      C    0.15976   0.24921   0.83014   1.000
    C1      C    0.87651   0.47507   0.82567   1.000
    C2      C    0.57178   0.47068   0.55223   1.000
    C3      C    0.98005   0.18979   0.56793   1.000
    C4      C    0.65978   0.16921   0.75058   1.000
    C5      C    0.37645   0.17419   0.52484   1.000
    C6      C    0.07168   0.44786   0.52922   1.000
    C7      C    0.48005   0.43195   0.81000   1.000
    O8      O    0.07339   0.25682   0.85560   1.000
    O9      O    0.17047   0.29819   0.74700   1.000
    O10     O    0.82175   0.41226   0.77744   1.000
    O11     O    0.96914   0.47084   0.81401   1.000
    O12     O    0.52279   0.39561   0.53271   1.000
    O13     O    0.62997   0.48486   0.63630   1.000
    O14     O    0.07479   0.15624   0.56470   1.000
    O15     O    0.94625   0.26120   0.62666   1.000
    O16     O    0.57367   0.14311   0.74265   1.000
    O17     O    0.67019   0.25270   0.70180   1.000
    O18     O    0.32172   0.22249   0.58761   1.000
    O19     O    0.46911   0.18574   0.52911   1.000
    O20     O    0.02266   0.46743   0.60421   1.000
    O21     O    0.12991   0.36369   0.51510   1.000
    O22     O    0.57476   0.43517   0.84360   1.000
    O23     O    0.44630   0.37317   0.73868   1.000
loop_
    _geom_bond_atom_site_label_1
    _geom_bond_atom_site_label_2
    _geom_bond_distance
    _geom_bond_site_symmetry_2
    _ccdc_geom_bond_type
    O21    C6        1.28341      .   S
    C5     O19       1.27270      .   S
    C5     O18       1.28417      .   S
    C6     O20       1.27341      .   S
    O12    C2        1.27321      .   S
    C2     O13       1.28324      .   S
    O14    C3        1.29013  1_455   S
    C3     O15       1.27635      .   S
    O17    C4        1.33457      .   S
    O23    C7        1.27597      .   S
    O16    C4        1.24855      .   S
    O9     C0        1.33391      .   S
    O10    C1        1.28420      .   S
    C7     O22       1.29001      .   S
    O11    C1        1.27270      .   S
    C0     O8        1.24864      .   S
