# CIF file generated by openbabel 2.4.90, see http://openbabel.sf.net
data_I
_chemical_name_common ''
_cell_length_a 13.463
_cell_length_b 13.224
_cell_length_c 13.238
_cell_angle_alpha 91.965
_cell_angle_beta 98.987
_cell_angle_gamma 81.006
_space_group_name_H-M_alt 'P 1'
_space_group_name_Hall 'P 1'
loop_
    _symmetry_equiv_pos_as_xyz
    x,y,z
loop_
    _atom_site_label
    _atom_site_type_symbol
    _atom_site_fract_x
    _atom_site_fract_y
    _atom_site_fract_z
    _atom_site_occupancy
    C0      C    0.15976   0.24921   0.83014   1.000
    C1      C    0.87651   0.47507   0.82567   1.000
    C2      C    0.57178   0.47068   0.55223   1.000
    C3      C    0.98005   0.18979   0.56793   1.000
    C4      C    0.65978   0.16921   0.75058   1.000
    C5      C    0.37645   0.17419   0.52484   1.000
    C6      C    0.07168   0.44786   0.52922   1.000
    C7      C    0.48005   0.43195   0.81000   1.000
