# CIF file generated by openbabel 2.4.90, see http://openbabel.sf.net
data_I
_chemical_name_common ''
_cell_length_a 13.463
_cell_length_b 13.224
_cell_length_c 13.238
_cell_angle_alpha 91.965
_cell_angle_beta 98.987
_cell_angle_gamma 81.006
_space_group_name_H-M_alt 'P 1'
_space_group_name_Hall 'P 1'
loop_
    _symmetry_equiv_pos_as_xyz
    x,y,z
loop_
    _atom_site_label
    _atom_site_type_symbol
    _atom_site_fract_x
    _atom_site_fract_y
    _atom_site_fract_z
    _atom_site_occupancy
    Zr0     Zr   0.01290   0.36507   0.71216   1.000
    Zr1     Zr   0.17877   0.24447   0.60419   1.000
    Zr2     Zr   0.51292   0.28743   0.63492   1.000
    Zr3     Zr   0.67877   0.39573   0.75547   1.000
    N4      N    0.12659   0.81937   0.11475   1.000
    N5      N    0.62651   0.88308   0.18047   1.000
    C6      C    0.38910   0.19414   0.54719   1.000
    O7      O    0.44006   0.21536   0.56460   1.000
    O8      O    0.31967   0.21381   0.57154   1.000
    O9      O    0.31514   0.08660   0.42358   1.000
    C10     C    0.00036   0.20241   0.58643   1.000
    O11     O    0.98997   0.25777   0.62792   1.000
    O12     O    0.89225   0.11360   0.47129   1.000
    O13     O    0.06357   0.20138   0.58544   1.000
    C14     C    0.07475   0.42633   0.54951   1.000
    O15     O    0.04627   0.42129   0.60385   1.000
    O16     O    0.11454   0.36520   0.55458   1.000
    O17     O    0.08591   0.53992   0.42586   1.000
    C18     C    0.50037   0.41343   0.79743   1.000
    O19     O    0.56357   0.41444   0.79848   1.000
    O20     O    0.48999   0.37187   0.74211   1.000
    O21     O    0.39227   0.52857   0.88573   1.000
    C22     C    0.63455   0.18834   0.73168   1.000
    O23     O    0.61305   0.22920   0.70002   1.000
    O24     O    0.65451   0.25628   0.73016   1.000
    O25     O    0.77532   0.08387   0.83940   1.000
    C26     C    0.57485   0.45038   0.57375   1.000
    O27     O    0.61461   0.44534   0.63482   1.000
    O28     O    0.58596   0.57352   0.46010   1.000
    O29     O    0.54635   0.39595   0.57878   1.000
    C30     C    0.13454   0.26808   0.81091   1.000
    O31     O    0.15458   0.26971   0.74325   1.000
    O32     O    0.11311   0.29985   0.77025   1.000
    O33     O    0.27529   0.15990   0.91559   1.000
    C34     C    0.88913   0.45272   0.80571   1.000
    O35     O    0.81516   0.57581   0.91326   1.000
    O36     O    0.81969   0.42836   0.78608   1.000
    O37     O    0.94007   0.43534   0.78440   1.000
loop_
    _geom_bond_atom_site_label_1
    _geom_bond_atom_site_label_2
    _geom_bond_distance
    _geom_bond_site_symmetry_2
    _ccdc_geom_bond_type
    C6     O7        0.78038      .   S
    Zr2    O7        1.63809      .   S
    C6     O8        1.02841      .   S
    Zr1    O8        1.98830      .   S
    C6     O9        2.33782      .   S
    N4     O9        5.84959  1_565   S
    C10    O11       0.90645  1_455   S
    Zr0    O11       1.80914  1_455   S
    C10    O12       2.35358  1_455   S
    N5     O12       5.93433  1_565   S
    C10    O13       0.85110      .   S
    Zr1    O13       1.71407      .   S
    C14    O15       0.87543      .   S
    Zr0    O15       1.78580      .   S
    C14    O16       0.89551      .   S
    Zr1    O16       1.78628      .   S
    C14    O17       2.29661      .   S
    N4     O17       5.77058      .   S
    C18    O19       0.85095      .   S
    Zr3    O19       1.71379      .   S
    C18    O20       0.90678      .   S
    Zr2    O20       1.81001      .   S
    C18    O21       2.34929      .   S
    N4     O21       5.92129  1_554   S
    C22    O23       0.69291      .   S
    Zr2    O23       1.58453      .   S
    C22    O24       0.97887      .   S
    Zr3    O24       1.93164      .   S
    C22    O25       2.45082      .   S
    N4     O25       6.18078  1_464   S
    C26    O27       0.89548      .   S
    Zr3    O27       1.78642      .   S
    C26    O28       2.29171      .   S
    N5     O28       5.75576      .   S
    C26    O29       0.87596      .   S
    Zr2    O29       1.78711      .   S
    C30    O31       0.97679      .   S
    Zr1    O31       1.92812      .   S
    C30    O32       0.69189      .   S
    Zr0    O32       1.58517      .   S
    C30    O33       2.45467      .   S
    N5     O33       6.19214  1_564   S
    C34    O35       2.33353      .   S
    N5     O35       5.83685  1_554   S
    C34    O36       1.02849      .   S
    Zr3    O36       1.98845      .   S
    C34    O37       0.78073      .   S
    Zr0    O37       1.63901  1_455   S
