# CIF file generated by openbabel 2.4.90, see http://openbabel.sf.net
data_I
_chemical_name_common ''
_cell_length_a 13.463
_cell_length_b 13.224
_cell_length_c 13.238
_cell_angle_alpha 91.965
_cell_angle_beta 98.987
_cell_angle_gamma 81.006
_space_group_name_H-M_alt 'P 1'
_space_group_name_Hall 'P 1'
loop_
    _symmetry_equiv_pos_as_xyz
    x,y,z
loop_
    _atom_site_label
    _atom_site_type_symbol
    _atom_site_fract_x
    _atom_site_fract_y
    _atom_site_fract_z
    _atom_site_occupancy
    Zr0     Zr   0.01290   0.36507   0.71216   1.000
    Zr1     Zr   0.17877   0.24447   0.60419   1.000
    Zr2     Zr   0.51292   0.28743   0.63492   1.000
    Zr3     Zr   0.67877   0.39573   0.75547   1.000
    Zr4     Zr   0.15976   0.24921   0.83014   1.000
    Zr5     Zr   0.87651   0.47507   0.82567   1.000
    Zr6     Zr   0.57178   0.47068   0.55223   1.000
    Zr7     Zr   0.98005   0.18979   0.56793   1.000
    Zr8     Zr   0.65978   0.16921   0.75058   1.000
    Zr9     Zr   0.37645   0.17419   0.52484   1.000
    Zr10    Zr   0.07168   0.44786   0.52922   1.000
    Zr11    Zr   0.48005   0.43195   0.81000   1.000
    Zr12    Zr   0.07339   0.25682   0.85560   1.000
    Zr13    Zr   0.17047   0.29819   0.74700   1.000
    Zr14    Zr   0.82175   0.41226   0.77744   1.000
    Zr15    Zr   0.96914   0.47084   0.81401   1.000
    Zr16    Zr   0.52279   0.39561   0.53271   1.000
    Zr17    Zr   0.62997   0.48486   0.63630   1.000
    Zr18    Zr   0.07479   0.15624   0.56470   1.000
    Zr19    Zr   0.94625   0.26120   0.62666   1.000
    Zr20    Zr   0.57367   0.14311   0.74265   1.000
    Zr21    Zr   0.67019   0.25270   0.70180   1.000
    Zr22    Zr   0.32172   0.22249   0.58761   1.000
    Zr23    Zr   0.46911   0.18574   0.52911   1.000
    Zr24    Zr   0.02266   0.46743   0.60421   1.000
    Zr25    Zr   0.12991   0.36369   0.51510   1.000
    Zr26    Zr   0.57476   0.43517   0.84360   1.000
    Zr27    Zr   0.44630   0.37317   0.73868   1.000
    O28     O    0.10079   0.40578   0.52216   1.000
    O29     O    0.15434   0.30408   0.55964   1.000
    O30     O    0.42278   0.17997   0.52697   1.000
    O31     O    0.34909   0.19834   0.55622   1.000
    O32     O    0.49102   0.23659   0.58201   1.000
    O33     O    0.04717   0.45765   0.56671   1.000
    O34     O    0.54729   0.43314   0.54247   1.000
    O35     O    0.51786   0.34152   0.58382   1.000
    O36     O    0.60087   0.47777   0.59426   1.000
    O37     O    0.02742   0.17302   0.56631   1.000
    O38     O    0.12678   0.20036   0.58444   1.000
    O39     O    0.96315   0.22550   0.59729   1.000
    O40     O    0.25025   0.23348   0.59590   1.000
    O41     O    0.17462   0.27133   0.67559   1.000
    O42     O    0.01778   0.41625   0.65819   1.000
    O43     O    0.97958   0.31314   0.66941   1.000
    O44     O    0.47961   0.33030   0.68680   1.000
    O45     O    0.65437   0.44029   0.69588   1.000
    O46     O    0.66499   0.21096   0.72619   1.000
    O47     O    0.67448   0.32421   0.72864   1.000
    O48     O    0.99102   0.41796   0.76309   1.000
    O49     O    0.46317   0.40256   0.77434   1.000
    O50     O    0.61672   0.15616   0.74661   1.000
    O51     O    0.16511   0.27370   0.78857   1.000
    O52     O    0.75026   0.40399   0.76645   1.000
    O53     O    0.62676   0.41545   0.79954   1.000
    O54     O    0.84913   0.44366   0.80155   1.000
    O55     O    0.52740   0.43356   0.82680   1.000
    O56     O    0.92282   0.47296   0.81984   1.000
    O57     O    0.11657   0.25302   0.84287   1.000
    O58     O    0.09168   0.33163   0.72958   1.000
    O59     O    0.59156   0.27007   0.66836   1.000
    N60     N    0.12659   0.81937   0.11475   1.000
    O61     O    0.09707   0.65351   0.30221   1.000
    O62     O    0.24118   0.97906   0.29998   1.000
    O63     O    0.28418   0.64372   0.97402   1.000
    O64     O    0.91610   0.97939   0.94713   1.000
    N65     N    0.62651   0.88308   0.18047   1.000
    O66     O    0.74118   0.69889   0.02080   1.000
    O67     O    0.59708   0.69666   0.34646   1.000
    O68     O    0.41603   0.05172   0.02027   1.000
    O69     O    0.78415   0.02480   0.35615   1.000
loop_
    _geom_bond_atom_site_label_1
    _geom_bond_atom_site_label_2
    _geom_bond_distance
    _geom_bond_site_symmetry_2
    _ccdc_geom_bond_type
    Zr25   O28       0.64170      .   S
    Zr10   O28       0.64170      .   S
    Zr25   O29       0.98360      .   S
    Zr1    O29       0.98360      .   S
    Zr9    O30       0.63635      .   S
    Zr23   O30       0.63635      .   S
    Zr9    O31       0.64209      .   S
    Zr22   O31       0.64209      .   S
    Zr23   O32       0.99736      .   S
    Zr2    O32       0.99736      .   S
    Zr10   O33       0.63671      .   S
    Zr24   O33       0.63671      .   S
    Zr16   O34       0.63661      .   S
    Zr6    O34       0.63661      .   S
    Zr16   O35       1.01773      .   S
    Zr2    O35       1.01773      .   S
    Zr6    O36       0.64162      .   S
    Zr17   O36       0.64162      .   S
    Zr18   O37       0.64506      .   S
    Zr7    O37       0.64506  1_655   S
    Zr18   O38       0.97913      .   S
    Zr1    O38       0.97913      .   S
    Zr7    O39       0.63817      .   S
    Zr19   O39       0.63817      .   S
    Zr22   O40       0.97333      .   S
    Zr1    O40       0.97333      .   S
    Zr1    O41       1.00502      .   S
    Zr13   O41       1.00502      .   S
    Zr24   O42       1.01717      .   S
    Zr0    O42       1.01717      .   S
    Zr19   O43       0.99174      .   S
    Zr0    O43       0.99174  1_455   S
    Zr2    O44       0.99210      .   S
    Zr27   O44       0.99210      .   S
    Zr17   O45       0.98377      .   S
    Zr3    O45       0.98377      .   S
    Zr21   O46       0.66728      .   S
    Zr8    O46       0.66728      .   S
    Zr21   O47       1.00573      .   S
    Zr3    O47       1.00573      .   S
    Zr0    O48       0.99785  1_455   S
    Zr15   O48       0.99785      .   S
    Zr27   O49       0.63798      .   S
    Zr11   O49       0.63798      .   S
    Zr20   O50       0.62427      .   S
    Zr8    O50       0.62427      .   S
    Zr13   O51       0.66696      .   S
    Zr4    O51       0.66696      .   S
    Zr3    O52       0.97340      .   S
    Zr14   O52       0.97340      .   S
    Zr3    O53       0.97903      .   S
    Zr26   O53       0.97903      .   S
    Zr14   O54       0.64210      .   S
    Zr5    O54       0.64210      .   S
    Zr11   O55       0.64501      .   S
    Zr26   O55       0.64501      .   S
    Zr15   O56       0.63635      .   S
    Zr5    O56       0.63635      .   S
    Zr4    O57       0.62432      .   S
    Zr12   O57       0.62432      .   S
    Zr13   O58       1.07593      .   S
    Zr0    O58       1.07593      .   S
    Zr21   O59       1.07422      .   S
    Zr2    O59       1.07422      .   S
    N60    O61       3.47576      .   S
    Zr10   O61       4.20896      .   S
    N60    O62       3.51192      .   S
    Zr9    O62       4.25263  1_545   S
    N60    O63       3.57274  1_554   S
    Zr11   O63       4.30968      .   S
    N60    O64       3.73029  1_454   S
    Zr8    O64       4.46244  1_545   S
    N65    O66       3.50348      .   S
    Zr5    O66       4.24415  1_556   S
    N65    O67       3.46582      .   S
    Zr6    O67       4.19920      .   S
    N65    O68       3.73781  1_565   S
    Zr4    O68       4.46997  1_556   S
    N65    O69       3.58152  1_565   S
    Zr7    O69       4.31809      .   S
