# CIF file generated by openbabel 2.4.90, see http://openbabel.sf.net
data_I
_chemical_name_common ''
_cell_length_a 11.092
_cell_length_b 16.183
_cell_length_c 17.987
_cell_angle_alpha 90.004
_cell_angle_beta 91.265
_cell_angle_gamma 90
_space_group_name_H-M_alt 'P 1'
_space_group_name_Hall 'P 1'
loop_
    _symmetry_equiv_pos_as_xyz
    x,y,z
loop_
    _atom_site_label
    _atom_site_type_symbol
    _atom_site_fract_x
    _atom_site_fract_y
    _atom_site_fract_z
    _atom_site_occupancy
    Zn0     Zn   0.00494   0.00000   0.07595   1.000
    C1      C    0.83906   0.88050   0.99976   1.000
    Zn2     Zn   0.99507   1.00000   0.92404   1.000
    C3      C    0.16093   0.88049   0.00000   1.000
    C4      C    0.16093   0.11953   0.00000   1.000
    C5      C    0.83906   0.11952   0.99977   1.000
    O6      O    0.86552   0.90983   0.93639   1.000
    O7      O    0.87461   0.90925   0.06252   1.000
    O8      O    0.13447   0.90985   0.06357   1.000
    O9      O    0.12542   0.90924   0.93744   1.000
    O10     O    0.13448   0.09018   0.06357   1.000
    O11     O    0.12542   0.09077   0.93744   1.000
    O12     O    0.86552   0.09018   0.93639   1.000
    O13     O    0.87462   0.09077   0.06252   1.000
    Ts14    Ts   0.00481   1.00000   0.11442   1.000
    Og15    Og   0.81346   0.85509   0.99995   1.000
    Ts16    Ts   0.99520   0.99999   0.88558   1.000
    Og17    Og   0.18653   0.85508   0.99989   1.000
    Og18    Og   0.18653   0.14494   0.99989   1.000
    Og19    Og   0.81346   0.14493   0.99995   1.000
loop_
    _geom_bond_atom_site_label_1
    _geom_bond_atom_site_label_2
    _geom_bond_distance
    _geom_bond_site_symmetry_2
    _ccdc_geom_bond_type
    C3     O8        1.27829      .   S
    C3     O9        1.27210  1_554   S
    C4     O10       1.27831      .   S
    C4     O11       1.27206  1_554   S
    O7     Zn0       2.07103  1_665   S
    O7     C1        1.27534  1_554   S
    O13    Zn0       2.07127  1_655   S
    O13    C5        1.27534  1_554   S
    O8     Zn0       2.06321  1_565   S
    O10    Zn0       2.06348      .   S
    Zn2    O6        2.06333      .   S
    Zn2    O12       2.06349  1_565   S
    Zn2    O9        2.07128  1_655   S
    Zn2    O11       2.07147  1_665   S
    O6     C1        1.27496      .   S
    O12    C5        1.27502      .   S
    Zn2    Zn0       2.73218  1_666   S
    Zn0    Ts14      0.69184  1_545   S
    C1     Og15      0.49979      .   S
    Zn2    Ts16      0.69183      .   S
    C3     Og17      0.49974  1_554   S
    C4     Og18      0.49977  1_554   S
    C5     Og19      0.49980      .   S
