# CIF file generated by openbabel 2.4.90, see http://openbabel.sf.net
data_I
_chemical_name_common ''
_cell_length_a 11.092
_cell_length_b 16.183
_cell_length_c 17.987
_cell_angle_alpha 90.004
_cell_angle_beta 91.265
_cell_angle_gamma 90
_space_group_name_H-M_alt 'P 1'
_space_group_name_Hall 'P 1'
loop_
    _symmetry_equiv_pos_as_xyz
    x,y,z
loop_
    _atom_site_label
    _atom_site_type_symbol
    _atom_site_fract_x
    _atom_site_fract_y
    _atom_site_fract_z
    _atom_site_occupancy
    C0      C    0.83906   0.88050   0.99976   1.000
    C1      C    0.16093   0.88049   0.00000   1.000
    C2      C    0.16093   0.11953   0.00000   1.000
    C3      C    0.83906   0.11952   0.99977   1.000
