# CIF file generated by openbabel 2.4.90, see http://openbabel.sf.net
data_I
_chemical_name_common ''
_cell_length_a 11.092
_cell_length_b 16.183
_cell_length_c 17.987
_cell_angle_alpha 90.004
_cell_angle_beta 91.265
_cell_angle_gamma 90
_space_group_name_H-M_alt 'P 1'
_space_group_name_Hall 'P 1'
loop_
    _symmetry_equiv_pos_as_xyz
    x,y,z
loop_
    _atom_site_label
    _atom_site_type_symbol
    _atom_site_fract_x
    _atom_site_fract_y
    _atom_site_fract_z
    _atom_site_occupancy
    N0      N    0.50001   0.50001   0.99994   1.000
    N1      N    0.00001   0.99999   0.50000   1.000
    Zr2     Zr   0.00000   0.00001   0.99996   1.000
    O3      O    0.99882   1.00000   0.84157   1.000
    O4      O    0.82517   0.16441   0.99997   1.000
    O5      O    0.17484   0.16442   0.99992   1.000
    O6      O    0.82517   0.83560   0.99997   1.000
    O7      O    0.17484   0.83560   0.99992   1.000
    O8      O    0.00119   0.00000   0.15839   1.000
loop_
    _geom_bond_atom_site_label_1
    _geom_bond_atom_site_label_2
    _geom_bond_distance
    _geom_bond_site_symmetry_2
    _ccdc_geom_bond_type
    Zr2    O3        2.84871  1_445   S
    N1     O3        6.14406  1_455   S
    Zr2    O4        3.29234  1_455   S
    N0     O4        6.51942      .   S
    Zr2    O5        3.29238      .   S
    N0     O5        6.51949      .   S
    Zr2    O6        3.29231  1_445   S
    N0     O6        6.51941      .   S
    Zr2    O7        3.29236  1_545   S
    N0     O7        6.51947      .   S
    Zr2    O8        2.84948  1_556   S
    N1     O8        6.14485  1_565   S
