# CIF file generated by openbabel 2.4.90, see http://openbabel.sf.net
data_I
_chemical_name_common ''
_cell_length_a 13.128
_cell_length_b 13.969
_cell_length_c 16.99
_cell_angle_alpha 90
_cell_angle_beta 90.046
_cell_angle_gamma 90.119
_space_group_name_H-M_alt 'P 1'
_space_group_name_Hall 'P 1'
loop_
    _symmetry_equiv_pos_as_xyz
    x,y,z
loop_
    _atom_site_label
    _atom_site_type_symbol
    _atom_site_fract_x
    _atom_site_fract_y
    _atom_site_fract_z
    _atom_site_occupancy
    Zn0     Zn   0.47618   0.90836   0.07314   1.000
    Zn1     Zn   0.57337   0.52032   0.90639   1.000
    Zn2     Zn   0.52378   0.59164   0.57314   1.000
    Zn3     Zn   0.92757   0.01861   0.09660   1.000
    Zn4     Zn   0.97780   0.09226   0.42943   1.000
    Zn5     Zn   0.07250   0.48178   0.59663   1.000
    Zn6     Zn   0.02210   0.40781   0.92939   1.000
    Zn7     Zn   0.57316   0.02040   0.59365   1.000
    Zn8     Zn   0.52404   0.09152   0.92690   1.000
    Zn9     Zn   0.42680   0.47966   0.09366   1.000
    Zn10    Zn   0.47583   0.40846   0.42701   1.000
    Zn11    Zn   0.07213   0.98035   0.90660   1.000
    Zn12    Zn   0.02226   0.90849   0.57320   1.000
    Zn13    Zn   0.92734   0.51974   0.40685   1.000
    Zn14    Zn   0.97752   0.59162   0.07325   1.000
    H15     H    0.25995   0.85974   0.50787   1.000
    H16     H    0.44103   0.19890   0.34828   1.000
    H17     H    0.15212   0.15037   0.33550   1.000
    H18     H    0.27477   0.11070   0.31803   1.000
    H19     H    0.55971   0.22987   0.63860   1.000
    H20     H    0.56497   0.33883   0.59106   1.000
    H21     H    0.73995   0.64027   0.00776   1.000
    H22     H    0.55869   0.30116   0.84831   1.000
    H23     H    0.84776   0.34976   0.83543   1.000
    H24     H    0.72500   0.38926   0.81793   1.000
    H25     H    0.44024   0.27015   0.13862   1.000
    H26     H    0.43494   0.16120   0.09000   1.000
    H27     H    0.76134   0.13911   0.99414   1.000
    H28     H    0.94455   0.79992   0.15265   1.000
    H29     H    0.65163   0.84882   0.16633   1.000
    H30     H    0.77506   0.88733   0.18277   1.000
    H31     H    0.05998   0.77178   0.86147   1.000
    Zn32    Zn   0.42651   0.97964   0.40638   1.000
    H33     H    0.06615   0.66240   0.90815   1.000
    H34     H    0.23844   0.36103   0.49402   1.000
    H35     H    0.05500   0.70020   0.65287   1.000
    H36     H    0.34851   0.65130   0.66618   1.000
    H37     H    0.22515   0.61274   0.68263   1.000
    H38     H    0.94026   0.72831   0.36122   1.000
    H39     H    0.93479   0.83801   0.40783   1.000
    H40     H    0.73992   0.14035   0.49302   1.000
    H41     H    0.55814   0.80130   0.65196   1.000
    H42     H    0.84701   0.84982   0.66558   1.000
    H43     H    0.72409   0.88899   0.68233   1.000
    H44     H    0.44033   0.77010   0.36137   1.000
    H45     H    0.43497   0.66118   0.40906   1.000
    H46     H    0.25994   0.36004   0.99309   1.000
    H47     H    0.44195   0.69870   0.15192   1.000
    H48     H    0.15267   0.65040   0.16576   1.000
    H49     H    0.27562   0.61118   0.18279   1.000
    H50     H    0.55965   0.72986   0.86142   1.000
    H51     H    0.56504   0.83879   0.90910   1.000
    H52     H    0.23937   0.86054   0.00686   1.000
    H53     H    0.05508   0.19919   0.84997   1.000
    H54     H    0.34763   0.15105   0.83436   1.000
    H55     H    0.22401   0.11266   0.81842   1.000
    H56     H    0.93986   0.22804   0.14117   1.000
    H57     H    0.93350   0.33718   0.09406   1.000
    H58     H    0.76041   0.63960   0.50696   1.000
    H59     H    0.94468   0.30092   0.34997   1.000
    H60     H    0.65224   0.34902   0.33439   1.000
    H61     H    0.77587   0.38742   0.31864   1.000
    H62     H    0.05999   0.27204   0.64126   1.000
    H63     H    0.06629   0.16297   0.59403   1.000
    C64     C    0.42194   0.01326   0.22027   1.000
    C65     C    0.46664   0.91508   0.24406   1.000
    C66     C    0.20132   0.04627   0.40829   1.000
    C67     C    0.22482   0.92138   0.48019   1.000
    C68     C    0.52897   0.22036   0.52303   1.000
    C69     C    0.46951   0.19055   0.40763   1.000
    C70     C    0.57796   0.48674   0.72027   1.000
    C71     C    0.53331   0.58489   0.74404   1.000
    C72     C    0.79859   0.45383   0.90814   1.000
    C73     C    0.77510   0.57868   0.98003   1.000
    C74     C    0.47085   0.27969   0.02300   1.000
    C75     C    0.53023   0.30951   0.90764   1.000
    C76     C    0.92351   0.98493   0.28068   1.000
    C77     C    0.96703   0.08418   0.25835   1.000
    C78     C    0.70120   0.95260   0.09329   1.000
    C79     C    0.72565   0.07760   0.02176   1.000
    C80     C    0.03048   0.78009   0.97726   1.000
    C81     C    0.97236   0.80882   0.09317   1.000
    C82     C    0.07665   0.51509   0.78069   1.000
    C83     C    0.03303   0.41590   0.75829   1.000
    C84     C    0.29881   0.54752   0.59313   1.000
    C85     C    0.27419   0.42254   0.52162   1.000
    C86     C    0.97017   0.72018   0.47706   1.000
    C87     C    0.02756   0.69136   0.59325   1.000
    C88     C    0.57782   0.98675   0.77987   1.000
    C89     C    0.53319   0.08493   0.75605   1.000
    C90     C    0.79814   0.95363   0.59256   1.000
    C91     C    0.77494   0.07870   0.52078   1.000
    C92     C    0.47075   0.77973   0.47706   1.000
    C93     C    0.52982   0.80963   0.59256   1.000
    C94     C    0.42215   0.51322   0.27984   1.000
    C95     C    0.46679   0.41507   0.25605   1.000
    C96     C    0.20162   0.54646   0.09287   1.000
    C97     C    0.22487   0.42160   0.02094   1.000
    C98     C    0.52924   0.72025   0.97700   1.000
    C99     C    0.47023   0.69037   0.09254   1.000
    O100    O    0.49340   0.35833   0.31037   1.000
    O101    O    0.10271   0.06931   0.77692   1.000
    O102    O    0.02301   0.89618   0.81650   1.000
    O103    O    0.07965   0.03266   0.64700   1.000
    C104    C    0.07576   0.01570   0.72078   1.000
    C105    C    0.03172   0.91677   0.74412   1.000
    C106    C    0.29858   0.04719   0.90751   1.000
    C107    C    0.27478   0.92209   0.97908   1.000
    C108    C    0.96937   0.21919   0.02542   1.000
    C109    C    0.02746   0.19037   0.90950   1.000
    C110    C    0.92347   0.48366   0.22040   1.000
    C111    C    0.96551   0.58327   0.24388   1.000
    C112    C    0.70121   0.45287   0.40765   1.000
    C113    C    0.72501   0.57800   0.47920   1.000
    C114    C    0.03048   0.28100   0.52540   1.000
    C115    C    0.97231   0.30976   0.40953   1.000
    N116    N    0.27337   0.97961   0.42798   1.000
    N117    N    0.12957   0.94838   0.49296   1.000
    N118    N    0.11377   0.02959   0.44720   1.000
    N119    N    0.21710   0.12099   0.35826   1.000
    N120    N    0.52322   0.12393   0.51624   1.000
    N121    N    0.48428   0.10596   0.44120   1.000
    N122    N    0.49560   0.26418   0.45574   1.000
    N123    N    0.56899   0.26583   0.58662   1.000
    N124    N    0.72649   0.52037   0.92787   1.000
    N125    N    0.87043   0.55182   0.99274   1.000
    N126    N    0.88622   0.47066   0.94699   1.000
    N127    N    0.78279   0.37907   0.85814   1.000
    N128    N    0.47652   0.37612   0.01621   1.000
    N129    N    0.51545   0.39410   0.94119   1.000
    N130    N    0.50418   0.23587   0.95571   1.000
    N131    N    0.43091   0.23421   0.08656   1.000
    N132    N    0.77393   0.01888   0.07367   1.000
    N133    N    0.62995   0.05135   0.00910   1.000
    N134    N    0.61349   0.96995   0.05471   1.000
    N135    N    0.71671   0.87746   0.14298   1.000
    N136    N    0.02394   0.87641   0.98434   1.000
    N137    N    0.98594   0.89366   0.05972   1.000
    N138    N    0.99844   0.73566   0.04471   1.000
    N139    N    0.06998   0.73543   0.91324   1.000
    N140    N    0.22603   0.48129   0.57351   1.000
    N141    N    0.36989   0.44876   0.50900   1.000
    N142    N    0.38644   0.53013   0.55458   1.000
    N143    N    0.28337   0.62268   0.64281   1.000
    N144    N    0.97645   0.62382   0.48419   1.000
    N145    N    0.01397   0.60655   0.55976   1.000
    N146    N    0.00195   0.76455   0.54466   1.000
    N147    N    0.93122   0.76497   0.41294   1.000
    N148    N    0.72612   0.02024   0.57261   1.000
    N149    N    0.87034   0.05187   0.50849   1.000
    N150    N    0.88597   0.97058   0.55414   1.000
    N151    N    0.78208   0.87874   0.64236   1.000
    N152    N    0.47649   0.87616   0.48380   1.000
    N153    N    0.51517   0.89419   0.55891   1.000
    N154    N    0.50389   0.73597   0.54444   1.000
    N155    N    0.43096   0.73419   0.41342   1.000
    N156    N    0.27371   0.48002   0.07280   1.000
    N157    N    0.12941   0.44830   0.00868   1.000
    N158    N    0.11374   0.52945   0.05444   1.000
    N159    N    0.21756   0.62129   0.14278   1.000
    N160    N    0.52349   0.62382   0.98381   1.000
    N161    N    0.48485   0.60580   0.05891   1.000
    N162    N    0.49615   0.76403   0.04445   1.000
    N163    N    0.56900   0.76578   0.91340   1.000
    N164    N    0.22603   0.98084   0.92748   1.000
    N165    N    0.37054   0.94838   0.99121   1.000
    N166    N    0.38663   0.02982   0.94564   1.000
    N167    N    0.28272   0.12234   0.85793   1.000
    N168    N    0.97620   0.12286   0.01854   1.000
    N169    N    0.01415   0.10556   0.94311   1.000
    N170    N    0.00123   0.26358   0.95787   1.000
    N171    N    0.92975   0.26409   0.08920   1.000
    N172    N    0.77372   0.51924   0.42767   1.000
    N173    N    0.62928   0.55166   0.49128   1.000
    N174    N    0.61320   0.47021   0.44572   1.000
    N175    N    0.71712   0.37777   0.35806   1.000
    N176    N    0.02365   0.37733   0.51859   1.000
    N177    N    0.98563   0.39459   0.44310   1.000
    N178    N    0.99858   0.23658   0.45793   1.000
    N179    N    0.07015   0.23604   0.58935   1.000
    O180    O    0.39475   0.06697   0.27613   1.000
    O181    O    0.47538   0.89531   0.31660   1.000
    O182    O    0.41777   0.02959   0.14687   1.000
    O183    O    0.49329   0.85834   0.18975   1.000
    O184    O    0.60505   0.43297   0.77615   1.000
    O185    O    0.52456   0.60464   0.81660   1.000
    O186    O    0.58218   0.47043   0.64687   1.000
    O187    O    0.50668   0.64165   0.68971   1.000
    O188    O    0.89649   0.93247   0.22368   1.000
    O189    O    0.97719   0.10459   0.18601   1.000
    O190    O    0.92002   0.96661   0.35362   1.000
    O191    O    0.99149   0.14111   0.31334   1.000
    O192    O    0.10389   0.56750   0.72373   1.000
    O193    O    0.02289   0.39551   0.68594   1.000
    O194    O    0.08002   0.53343   0.85363   1.000
    O195    O    0.00000   0.35899   0.81325   1.000
    O196    O    0.60480   0.93291   0.72406   1.000
    O197    O    0.52453   0.10469   0.68342   1.000
    O198    O    0.58217   0.97048   0.85329   1.000
    O199    O    0.50655   0.14166   0.81035   1.000
    O200    O    0.39517   0.56708   0.22401   1.000
    O201    O    0.47546   0.39533   0.18343   1.000
    O202    O    0.41776   0.52946   0.35326   1.000
    O203    O    0.00000   0.86003   0.68955   1.000
    O204    O    0.89726   0.42961   0.27641   1.000
    O205    O    0.97327   0.60408   0.31637   1.000
    O206    O    0.92033   0.46681   0.14707   1.000
    O207    O    0.99123   0.64048   0.18950   1.000
loop_
    _geom_bond_atom_site_label_1
    _geom_bond_atom_site_label_2
    _geom_bond_distance
    _geom_bond_site_symmetry_2
    _ccdc_geom_bond_type
    H52    C107      1.08480  1_554   S
    H21    C73       1.08499  1_554   S
    N157   C97       1.32462      .   S
    N157   N158      1.39033      .   S
    N157   Zn6       2.02807  1_554   S
    N133   C79       1.32551      .   S
    N133   N134      1.39251  1_545   S
    N133   Zn8       2.04911  1_554   S
    N128   C74       1.35388      .   S
    N128   Zn9       2.06275      .   S
    N128   N129      1.39616  1_554   S
    N168   C108      1.35385      .   S
    N168   Zn3       2.06991      .   S
    N168   N169      1.39660  1_654   S
    C97    N156      1.36023      .   S
    C97    H46       1.08493  1_554   S
    C79    N132      1.36142      .   S
    C79    H27       1.08477  1_554   S
    C74    N131      1.35803      .   S
    C74    N130      1.36935  1_554   S
    C108   N171      1.35667      .   S
    C108   N170      1.36978  1_654   S
    N162   Zn0       2.09129      .   S
    N162   C99       1.35685      .   S
    N162   C98       1.37033  1_554   S
    N138   Zn14      2.08739      .   S
    N138   C81       1.35707      .   S
    N138   C80       1.36933  1_654   S
    N158   Zn14      2.01530  1_455   S
    N158   C96       1.34587      .   S
    N134   Zn0       2.02045      .   S
    N134   C78       1.34693      .   S
    N161   C99       1.32666      .   S
    N161   Zn9       2.00727      .   S
    N161   N160      1.39617  1_554   S
    N137   C81       1.32610      .   S
    N137   Zn3       2.00813  1_565   S
    N137   N136      1.39596  1_654   S
    N156   C96       1.37018      .   S
    N156   Zn9       2.04054      .   S
    Zn0    O182      2.24326  1_565   S
    Zn0    O183      2.11273      .   S
    Zn0    N165      2.04296  1_554   S
    Zn14   O206      2.27433      .   S
    Zn14   O207      2.09717      .   S
    Zn14   N125      2.03728  1_554   S
    N132   C78       1.36996  1_545   S
    N132   Zn3       2.05397      .   S
    N131   H26       1.02297      .   S
    N131   H25       1.02417      .   S
    N171   H57       1.02532      .   S
    N171   H56       1.02518      .   S
    C99    H47       1.08162      .   S
    C96    N159      1.36178      .   S
    C81    H28       1.08182      .   S
    C78    N135      1.36257      .   S
    Zn9    O201      2.03066      .   S
    Zn3    O189      2.04196      .   S
    N159   H48       1.02251      .   S
    N159   H49       1.03083      .   S
    N135   H29       1.02300      .   S
    N135   H30       1.03034      .   S
    O182   C64       1.26893      .   S
    O206   C110      1.26855      .   S
    O201   C95       1.26950      .   S
    O189   C77       1.26879      .   S
    O207   C111      1.26709      .   S
    O183   C65       1.26634      .   S
    C64    C65       1.54646  1_545   S
    C64    O180      1.26202      .   S
    C110   C111      1.54802      .   S
    C110   O204      1.26234      .   S
    O188   C76       1.26455      .   S
    O200   C94       1.26166      .   S
    C111   O205      1.26940      .   S
    C65    O181      1.26817      .   S
    C95    C94       1.54608      .   S
    C95    O100      1.26601      .   S
    C77    C76       1.54580  1_545   S
    C77    O191      1.26767      .   S
    C94    O202      1.26922      .   S
    C76    O190      1.26624      .   S
    O100   Zn10      2.11479      .   S
    O191   Zn4       2.09480      .   S
    O205   Zn13      2.02809      .   S
    O181   Zn32      2.03237      .   S
    H18    N119      1.03063      .   S
    H61    N175      1.03056      .   S
    H60    N175      1.02301      .   S
    H17    N119      1.02309      .   S
    H16    C69       1.08157      .   S
    H59    C115      1.08172      .   S
    O202   Zn10      2.23865      .   S
    O190   Zn4       2.30397  1_565   S
    N175   C112      1.36203      .   S
    N119   C66       1.36174      .   S
    H38    N147      1.02415      .   S
    H44    N155      1.02409      .   S
    Zn32   N116      2.04387      .   S
    Zn32   N121      2.00811  1_565   S
    Zn32   N152      2.06224      .   S
    Zn13   N172      2.04785      .   S
    Zn13   N177      2.00644      .   S
    Zn13   N144      2.06174      .   S
    C69    N121      1.32662      .   S
    C69    N122      1.35702      .   S
    C112   N172      1.37001      .   S
    C112   N174      1.34703      .   S
    H39    N147      1.02491      .   S
    C66    N116      1.37000  1_545   S
    C66    N118      1.34624      .   S
    H45    N155      1.02400      .   S
    C115   N177      1.32628      .   S
    C115   N178      1.35692      .   S
    N147   C86       1.35653      .   S
    N155   C92       1.35812      .   S
    Zn10   N174      2.02234      .   S
    Zn10   N122      2.09043      .   S
    Zn10   N141      2.04893      .   S
    N172   C113      1.36100      .   S
    N116   C67       1.36141      .   S
    Zn4    N118      2.01241  1_655   S
    Zn4    N178      2.09059      .   S
    Zn4    N149      2.02796      .   S
    N121   N120      1.39583      .   S
    N177   N176      1.39703  1_655   S
    N174   N173      1.39167      .   S
    N118   N117      1.39098  1_545   S
    N122   C68       1.36892      .   S
    N178   C114      1.36842  1_655   S
    C92    N152      1.35375      .   S
    C92    N154      1.36888      .   S
    C86    N144      1.35417      .   S
    C86    N146      1.36950  1_655   S
    C113   N173      1.32492      .   S
    C113   H58       1.08482      .   S
    C67    N117      1.32482      .   S
    C67    H15       1.08474      .   S
    N152   N153      1.39575      .   S
    N144   N145      1.39598  1_655   S
    N173   Zn2       2.04225      .   S
    N117   Zn12      2.03801      .   S
    H40    C91       1.08478      .   S
    H34    C85       1.08471      .   S
    N149   C91       1.32471      .   S
    N149   N150      1.39064  1_545   S
    N141   C85       1.32550      .   S
    N141   N142      1.39201      .   S
    N120   C68       1.35379      .   S
    N120   Zn7       2.06249      .   S
    N176   C114      1.35374      .   S
    N176   Zn5       2.07191      .   S
    C91    N148      1.36078      .   S
    C85    N140      1.36147      .   S
    C68    N123      1.35808      .   S
    C114   N179      1.35891      .   S
    N154   Zn2       2.09108      .   S
    N154   C93       1.35686      .   S
    N146   Zn12      2.08489      .   S
    N146   C87       1.35677      .   S
    N150   Zn12      2.01588  1_655   S
    N150   C90       1.34607      .   S
    N142   Zn2       2.02015      .   S
    N142   C84       1.34686      .   S
    N153   C93       1.32669      .   S
    N153   Zn7       2.00743  1_565   S
    N145   C87       1.32600      .   S
    N145   Zn5       2.00627      .   S
    N148   C90       1.37021  1_545   S
    N148   Zn7       2.03998      .   S
    Zn2    O186      2.24219      .   S
    Zn2    O187      2.11242      .   S
    Zn12   O103      2.26750  1_565   S
    Zn12   O203      2.10987      .   S
    N140   C84       1.36961      .   S
    N140   Zn5       2.05377      .   S
    N123   H20       1.02408      .   S
    N123   H19       1.02318      .   S
    N179   H63       1.02498      .   S
    N179   H62       1.02418      .   S
    C93    H41       1.08159      .   S
    C90    N151      1.36168      .   S
    C84    N143      1.36268      .   S
    C87    H35       1.08181      .   S
    Zn7    O197      2.03100      .   S
    Zn5    O193      2.04382      .   S
    N151   H42       1.02295      .   S
    N151   H43       1.03074      .   S
    N143   H36       1.02308      .   S
    N143   H37       1.03028      .   S
    O186   C70       1.26896      .   S
    O103   C104      1.27676      .   S
    O197   C89       1.26954      .   S
    O193   C83       1.26865      .   S
    O203   C105      1.28812      .   S
    O187   C71       1.26628      .   S
    C70    C71       1.54617      .   S
    C70    O184      1.26197      .   S
    C104   C105      1.54874  1_545   S
    C104   O101      1.26250      .   S
    O192   C82       1.26481      .   S
    O196   C88       1.26164      .   S
    C71    O185      1.26863      .   S
    C105   O102      1.26813      .   S
    C89    C88       1.54639  1_545   S
    C89    O199      1.26610      .   S
    C83    C82       1.54558      .   S
    C83    O195      1.30046      .   S
    C88    O198      1.26918      .   S
    C82    O194      1.26618      .   S
    O199   Zn8       2.11288      .   S
    O195   Zn6       2.10740      .   S
    O102   Zn11      2.03398      .   S
    O185   Zn1       2.03149      .   S
    H24    N127      1.03063      .   S
    H55    N167      1.03038      .   S
    H54    N167      1.02296      .   S
    H23    N127      1.02273      .   S
    H22    C75       1.08171      .   S
    H53    C109      1.08169      .   S
    O198   Zn8       2.23879  1_565   S
    O194   Zn6       2.30435      .   S
    N167   C106      1.36222      .   S
    N127   C72       1.36168      .   S
    H50    N163      1.02290      .   S
    H31    N139      1.02406      .   S
    Zn1    N124      2.04269      .   S
    Zn1    N129      2.00789      .   S
    Zn1    N160      2.06271      .   S
    Zn11   N164      2.05100      .   S
    Zn11   N169      2.00743  1_565   S
    Zn11   N136      2.06171      .   S
    C106   N164      1.37044  1_545   S
    C106   N166      1.34710      .   S
    C75    N129      1.32667      .   S
    C75    N130      1.35690      .   S
    C72    N124      1.36978      .   S
    C72    N126      1.34612      .   S
    H33    N139      1.02504      .   S
    H51    N163      1.02393      .   S
    C109   N169      1.32640      .   S
    C109   N170      1.35706      .   S
    N139   C80       1.35773      .   S
    N163   C98       1.35802      .   S
    Zn8    N166      2.02308      .   S
    Zn8    N130      2.09180      .   S
    N164   C107      1.36126      .   S
    N124   C73       1.36123      .   S
    Zn6    N126      2.01235  1_455   S
    Zn6    N170      2.08968      .   S
    N166   N165      1.39195  1_545   S
    N126   N125      1.39063      .   S
    C98    N160      1.35393      .   S
    C80    N136      1.35369      .   S
    C107   N165      1.32494      .   S
    C73    N125      1.32475      .   S
