# CIF file generated by openbabel 2.4.90, see http://openbabel.sf.net
data_I
_chemical_name_common ''
_cell_length_a 14.239
_cell_length_b 14.542
_cell_length_c 15.068
_cell_angle_alpha 89.691
_cell_angle_beta 90.222
_cell_angle_gamma 90.189
_space_group_name_H-M_alt 'P 1'
_space_group_name_Hall 'P 1'
loop_
    _symmetry_equiv_pos_as_xyz
    x,y,z
loop_
    _atom_site_label
    _atom_site_type_symbol
    _atom_site_fract_x
    _atom_site_fract_y
    _atom_site_fract_z
    _atom_site_occupancy
    H0      H    0.83410   0.76447   0.02647   1.000
    H1      H    0.97678   0.69915   0.27126   1.000
    H2      H    0.73993   0.53606   0.18640   1.000
    H3      H    0.66575   0.23663   0.52801   1.000
    H4      H    0.52167   0.30430   0.76970   1.000
    H5      H    0.76070   0.46489   0.68607   1.000
    H6      H    0.16723   0.26347   0.47117   1.000
    H7      H    0.02022   0.20035   0.22858   1.000
    H8      H    0.25815   0.03726   0.30973   1.000
    H9      H    0.33360   0.73872   0.97400   1.000
    H10     H    0.47647   0.80390   0.73085   1.000
    H11     H    0.23882   0.96510   0.81250   1.000
    C12     C    0.77940   0.64800   0.09926   1.000
    C13     C    0.84097   0.72201   0.08580   1.000
    C14     C    0.91177   0.74074   0.14789   1.000
    C15     C    0.92097   0.68524   0.22362   1.000
    C16     C    0.85875   0.61188   0.23775   1.000
    C17     C    0.78783   0.59345   0.17563   1.000
    C18     C    0.72110   0.35278   0.60000   1.000
    C19     C    0.65883   0.27939   0.58664   1.000
    C20     C    0.58726   0.26169   0.64791   1.000
    C21     C    0.57800   0.31755   0.72277   1.000
    C22     C    0.64073   0.39047   0.73675   1.000
    C23     C    0.71238   0.40786   0.67542   1.000
    C24     C    0.22060   0.14817   0.39751   1.000
    C25     C    0.15925   0.22164   0.41196   1.000
    C26     C    0.08724   0.24060   0.35109   1.000
    C27     C    0.07677   0.18613   0.27540   1.000
    C28     C    0.13864   0.11327   0.26024   1.000
    C29     C    0.21060   0.09434   0.32127   1.000
    C30     C    0.27840   0.85402   0.90070   1.000
    C31     C    0.34045   0.78088   0.91528   1.000
    C32     C    0.41155   0.76256   0.85396   1.000
    C33     C    0.42059   0.81762   0.77796   1.000
    C34     C    0.35816   0.89027   0.76283   1.000
    C35     C    0.28696   0.90830   0.82413   1.000
loop_
    _geom_bond_atom_site_label_1
    _geom_bond_atom_site_label_2
    _geom_bond_distance
    _geom_bond_site_symmetry_2
    _ccdc_geom_bond_type
    H0     C13       1.08797      .   S
    C13    C12       1.40036      .   S
    C13    C14       1.39973      .   S
    C12    C17       1.39919      .   S
    C14    C15       1.40006      .   S
    C17    H2        1.08794      .   S
    C17    C16       1.40043      .   S
    C15    C16       1.40041      .   S
    C15    H1        1.08799      .   S
    H7     C27       1.08811      .   S
    C28    C27       1.40036      .   S
    C28    C29       1.40112      .   S
    C27    C26       1.39933      .   S
    H8     C29       1.08813      .   S
    C29    C24       1.40013      .   S
    C26    C25       1.40025      .   S
    C24    C25       1.40075      .   S
    C25    H6        1.08790      .   S
    H3     C19       1.08799      .   S
    C19    C18       1.40012      .   S
    C19    C20       1.40007      .   S
    C18    C23       1.39997      .   S
    C20    C21       1.40052      .   S
    C23    H5        1.08793      .   S
    C23    C22       1.40065      .   S
    C21    C22       1.40055      .   S
    C21    H4        1.08730      .   S
    H10    C33       1.08798      .   S
    C34    C33       1.40017      .   S
    C34    C35       1.40053      .   S
    C33    C32       1.39988      .   S
    H11    C35       1.08809      .   S
    C35    C30       1.39986      .   S
    C32    C31       1.40043      .   S
    C30    C31       1.40086      .   S
    C31    H9        1.07828      .   S
