# CIF file generated by openbabel 2.4.90, see http://openbabel.sf.net
data_I
_chemical_name_common ''
_cell_length_a 14.239
_cell_length_b 14.542
_cell_length_c 15.068
_cell_angle_alpha 89.691
_cell_angle_beta 90.222
_cell_angle_gamma 90.189
_space_group_name_H-M_alt 'P 1'
_space_group_name_Hall 'P 1'
loop_
    _symmetry_equiv_pos_as_xyz
    x,y,z
loop_
    _atom_site_label
    _atom_site_type_symbol
    _atom_site_fract_x
    _atom_site_fract_y
    _atom_site_fract_z
    _atom_site_occupancy
    C0      C    0.70654   0.62710   0.03106   1.000
    C1      C    0.97923   0.81783   0.13293   1.000
    C2      C    0.86925   0.55108   0.31655   1.000
    C3      C    0.79465   0.37301   0.53258   1.000
    C4      C    0.51902   0.18534   0.63281   1.000
    C5      C    0.63039   0.45193   0.81455   1.000
    C6      C    0.29456   0.12703   0.46475   1.000
    C7      C    0.02000   0.31700   0.36723   1.000
    C8      C    0.12647   0.05395   0.18122   1.000
    C9      C    0.20497   0.87461   0.96790   1.000
    C10     C    0.47916   0.68601   0.86935   1.000
    C11     C    0.36885   0.95043   0.68350   1.000
