# CIF file generated by openbabel 2.4.90, see http://openbabel.sf.net
data_I
_chemical_name_common ''
_cell_length_a 14.239
_cell_length_b 14.542
_cell_length_c 15.068
_cell_angle_alpha 89.691
_cell_angle_beta 90.222
_cell_angle_gamma 90.189
_space_group_name_H-M_alt 'P 1'
_space_group_name_Hall 'P 1'
loop_
    _symmetry_equiv_pos_as_xyz
    x,y,z
loop_
    _atom_site_label
    _atom_site_type_symbol
    _atom_site_fract_x
    _atom_site_fract_y
    _atom_site_fract_z
    _atom_site_occupancy
    N0      N    0.85005   0.66678   0.16156   1.000
    N1      N    0.64960   0.33506   0.66147   1.000
    N2      N    0.14874   0.16725   0.33633   1.000
    N3      N    0.34944   0.83571   0.83913   1.000
    Zr4     Zr   0.60789   0.58797   0.90402   1.000
    O5      O    0.70220   0.62007   0.00869   1.000
    O6      O    0.62523   0.48305   0.81129   1.000
    O7      O    0.50264   0.68398   0.87721   1.000
    Zr8     Zr   0.10621   0.91591   0.09484   1.000
    O9      O    0.00199   0.81947   0.12291   1.000
    O10     O    0.20089   0.88296   0.99078   1.000
    O11     O    0.12343   0.02067   0.18669   1.000
    Zr12    Zr   0.39145   0.08730   0.59436   1.000
    O13     O    0.37396   0.98266   0.68775   1.000
    O14     O    0.29731   0.11986   0.48904   1.000
    O15     O    0.49641   0.18329   0.62264   1.000
    Zr16    Zr   0.89197   0.41402   0.40466   1.000
    O17     O    0.79786   0.38150   0.50927   1.000
    O18     O    0.87450   0.51907   0.31201   1.000
    O19     O    0.99658   0.31852   0.37620   1.000
loop_
    _geom_bond_atom_site_label_1
    _geom_bond_atom_site_label_2
    _geom_bond_distance
    _geom_bond_site_symmetry_2
    _ccdc_geom_bond_type
    Zr4    O5        2.12044  1_556   S
    N0     O5        3.18901      .   S
    Zr4    O6        2.09026      .   S
    N1     O6        3.14817      .   S
    Zr4    O7        2.08840      .   S
    N3     O7        3.15661      .   S
    Zr8    O9        2.08147      .   S
    N0     O9        3.14870  1_655   S
    Zr8    O10       2.12942  1_554   S
    N3     O10       3.19873      .   S
    Zr8    O11       2.07694  1_565   S
    N2     O11       3.13016      .   S
    Zr12   O13       2.08205  1_545   S
    N3     O13       3.13696      .   S
    Zr12   O14       2.12576      .   S
    N2     O14       3.19366      .   S
    Zr12   O15       2.08606      .   S
    N1     O15       3.15338      .   S
    Zr16   O17       2.12328      .   S
    N1     O17       3.19109      .   S
    Zr16   O18       2.07888      .   S
    N0     O18       3.13369      .   S
    Zr16   O19       2.08709      .   S
    N2     O19       3.15448  1_455   S
