# CIF file generated by openbabel 2.4.90, see http://openbabel.sf.net
data_I
_chemical_name_common ''
_cell_length_a 18.424
_cell_length_b 18.433
_cell_length_c 18.433
_cell_angle_alpha 60.144
_cell_angle_beta 60.154
_cell_angle_gamma 60.156
_space_group_name_H-M_alt 'P 1'
_space_group_name_Hall 'P 1'
loop_
    _symmetry_equiv_pos_as_xyz
    x,y,z
loop_
    _atom_site_label
    _atom_site_type_symbol
    _atom_site_fract_x
    _atom_site_fract_y
    _atom_site_fract_z
    _atom_site_occupancy
    Zr0     Zr   0.20661   0.38047   0.20672   1.000
    Zr1     Zr   0.38048   0.20664   0.20664   1.000
    Zr2     Zr   0.20638   0.20636   0.20634   1.000
    Zr3     Zr   0.20661   0.20673   0.38047   1.000
    Zr4     Zr   0.61955   0.79334   0.79333   1.000
    Zr5     Zr   0.79343   0.61951   0.79325   1.000
    Zr6     Zr   0.79366   0.79362   0.79363   1.000
    Zr7     Zr   0.79342   0.79325   0.61950   1.000
    N8      N    0.50002   0.49999   0.99997   1.000
    O9      O    0.45228   0.37799   0.08498   1.000
    O10     O    0.54775   0.62199   0.91497   1.000
    O11     O    0.37797   0.45229   0.08498   1.000
    O12     O    0.62207   0.54769   0.91497   1.000
    N13     N    0.00002   0.49999   0.99998   1.000
    O14     O    0.08496   0.45226   0.08496   1.000
    O15     O    0.08484   0.37788   0.08481   1.000
    O16     O    0.91520   0.62211   0.91515   1.000
    O17     O    0.91507   0.54773   0.91500   1.000
    N18     N    0.00002   0.99999   0.49998   1.000
    O19     O    0.08484   0.08483   0.37786   1.000
    O20     O    0.08496   0.08497   0.45225   1.000
    O21     O    0.91507   0.91501   0.54772   1.000
    O22     O    0.91520   0.91515   0.62210   1.000
    N23     N    0.50002   0.99999   0.49998   1.000
    O24     O    0.62207   0.91499   0.54768   1.000
    O25     O    0.37797   0.08499   0.45228   1.000
    O26     O    0.45228   0.08500   0.37798   1.000
    O27     O    0.54775   0.91499   0.62198   1.000
    N28     N    0.50002   0.99999   0.99998   1.000
    O29     O    0.45229   0.08495   0.08492   1.000
    O30     O    0.54775   0.91503   0.91502   1.000
    O31     O    0.37789   0.08482   0.08481   1.000
    O32     O    0.62215   0.91516   0.91516   1.000
    N33     N    0.00002   0.49999   0.49997   1.000
    O34     O    0.91505   0.54770   0.62196   1.000
    O35     O    0.08498   0.45229   0.37799   1.000
    O36     O    0.08499   0.37801   0.45227   1.000
    O37     O    0.91505   0.62197   0.54768   1.000
    N38     N    0.75006   0.74997   0.74996   1.000
    O39     O    0.76096   0.76088   0.76088   1.000
    O40     O    0.76090   0.76079   0.71734   1.000
    O41     O    0.76090   0.71736   0.76078   1.000
    O42     O    0.71743   0.76081   0.76080   1.000
    N43     N    0.24997   0.25001   0.25001   1.000
    O44     O    0.23913   0.28263   0.23919   1.000
    O45     O    0.23908   0.23910   0.23909   1.000
    O46     O    0.23913   0.23919   0.28263   1.000
    O47     O    0.28260   0.23917   0.23917   1.000
loop_
    _geom_bond_atom_site_label_1
    _geom_bond_atom_site_label_2
    _geom_bond_distance
    _geom_bond_site_symmetry_2
    _ccdc_geom_bond_type
    N8     O9        2.31828  1_556   S
    Zr1    O9        3.30282      .   S
    N8     O10       2.31828      .   S
    Zr4    O10       3.30282      .   S
    N8     O11       2.31814  1_556   S
    Zr0    O11       3.30250      .   S
    N8     O12       2.31814      .   S
    Zr5    O12       3.30249      .   S
    N13    O14       2.31832  1_556   S
    Zr0    O14       3.30289      .   S
    N13    O15       2.31969  1_556   S
    Zr2    O15       3.30500      .   S
    N13    O16       2.31967  1_455   S
    Zr6    O16       3.30488      .   S
    N13    O17       2.31822  1_455   S
    Zr5    O17       3.30281      .   S
    N18    O19       2.31965  1_565   S
    Zr2    O19       3.30495      .   S
    N18    O20       2.31828  1_565   S
    Zr3    O20       3.30290      .   S
    N18    O21       2.31826  1_455   S
    Zr7    O21       3.30288      .   S
    N18    O22       2.31967  1_455   S
    Zr6    O22       3.30497      .   S
    N23    O24       2.31817      .   S
    Zr7    O24       3.30254      .   S
    N23    O25       2.31816  1_565   S
    Zr3    O25       3.30244      .   S
    N23    O26       2.31825  1_565   S
    Zr1    O26       3.30279      .   S
    N23    O27       2.31833      .   S
    Zr4    O27       3.30287      .   S
    N28    O29       2.31896  1_566   S
    Zr1    O29       3.30431      .   S
    N28    O30       2.31911      .   S
    Zr4    O30       3.30401      .   S
    N28    O31       2.32027  1_566   S
    Zr2    O31       3.30572      .   S
    N28    O32       2.32021      .   S
    Zr6    O32       3.30567      .   S
    N33    O34       2.31849  1_455   S
    Zr5    O34       3.30296      .   S
    N33    O35       2.31826      .   S
    Zr0    O35       3.30274      .   S
    N33    O36       2.31828      .   S
    Zr3    O36       3.30274      .   S
    N33    O37       2.31842  1_455   S
    Zr7    O37       3.30289      .   S
    N38    O39       0.49197      .   S
    Zr6    O39       1.47590      .   S
    N38    O40       0.49178      .   S
    Zr7    O40       1.47535      .   S
    N38    O41       0.49178      .   S
    Zr5    O41       1.47533      .   S
    N38    O42       0.49178      .   S
    Zr4    O42       1.47533      .   S
    N43    O44       0.49178      .   S
    Zr0    O44       1.47533      .   S
    N43    O45       0.49197      .   S
    Zr2    O45       1.47590      .   S
    N43    O46       0.49178      .   S
    Zr3    O46       1.47535      .   S
    N43    O47       0.49178      .   S
    Zr1    O47       1.47533      .   S
