# CIF file generated by openbabel 2.4.90, see http://openbabel.sf.net
data_I
_chemical_name_common ''
_cell_length_a 12.7072
_cell_length_b 12.778
_cell_length_c 18.446
_cell_angle_alpha 90.23
_cell_angle_beta 90.0279
_cell_angle_gamma 60.2818
_space_group_name_H-M_alt 'P 1'
_space_group_name_Hall 'P 1'
loop_
    _symmetry_equiv_pos_as_xyz
    x,y,z
loop_
    _atom_site_label
    _atom_site_type_symbol
    _atom_site_fract_x
    _atom_site_fract_y
    _atom_site_fract_z
    _atom_site_occupancy
    C0      C    0.99940   0.63049   0.49987   1.000
    C1      C    0.36988   0.99993   0.16605   1.000
    C2      C    0.63023   0.36927   0.83385   1.000
    C3      C    0.39547   0.99868   0.42846   1.000
    C4      C    0.52131   0.11413   0.35293   1.000
    C5      C    0.43173   0.16110   0.43217   1.000
    C6      C    0.61740   0.07672   0.49776   1.000
    C7      C    0.70116   0.00418   0.41911   1.000
    C8      C    0.59929   0.95061   0.59009   1.000
    C9      C    0.57066   0.83275   0.56526   1.000
    C10     C    0.46753   0.98491   0.53978   1.000
    C11     C    0.50934   0.74625   0.37935   1.000
    C12     C    0.47659   0.79800   0.47046   1.000
    C13     C    0.62550   0.68333   0.44653   1.000
    C14     C    0.63375   0.79477   0.29910   1.000
    C15     C    0.75442   0.73036   0.36242   1.000
    C16     C    0.70072   0.87958   0.32986   1.000
    C17     C    0.60570   0.39713   0.09677   1.000
    C18     C    0.36566   0.51723   0.02017   1.000
    C19     C    0.40733   0.43075   0.10015   1.000
    C20     C    0.30453   0.61769   0.16397   1.000
    C21     C    0.29508   0.69867   0.08475   1.000
    C22     C    0.44727   0.60375   0.25701   1.000
    C23     C    0.59402   0.57616   0.23288   1.000
    C24     C    0.54523   0.47166   0.20770   1.000
    C25     C    0.74454   0.51159   0.04781   1.000
    C26     C    0.72417   0.48153   0.13909   1.000
    C27     C    0.69036   0.62939   0.11404   1.000
    C28     C    0.57322   0.63206   0.96647   1.000
    C29     C    0.51590   0.75369   0.02912   1.000
    C30     C    0.42116   0.69763   0.00000   1.000
    C31     C    0.00000   0.60537   0.76243   1.000
    C32     C    0.11523   0.36789   0.68573   1.000
    C33     C    0.16193   0.41056   0.76516   1.000
    C34     C    0.07822   0.30790   0.83008   1.000
    C35     C    0.00499   0.29719   0.75150   1.000
    C36     C    0.95201   0.45025   0.92361   1.000
    C37     C    0.83293   0.59557   0.89995   1.000
    C38     C    0.98561   0.54799   0.87362   1.000
    C39     C    0.74424   0.74344   0.71498   1.000
    C40     C    0.79641   0.72430   0.80591   1.000
    C41     C    0.68151   0.68941   0.78193   1.000
    C42     C    0.79295   0.57186   0.63383   1.000
    C43     C    0.72917   0.51487   0.69720   1.000
    C44     C    0.87906   0.42104   0.66357   1.000
    C45     C    0.60474   0.39526   0.57156   1.000
    C46     C    0.48249   0.63292   0.64854   1.000
    C47     C    0.57165   0.59084   0.56912   1.000
    C48     C    0.38558   0.69298   0.50414   1.000
    C49     C    0.30181   0.70344   0.58268   1.000
    C50     C    0.40089   0.55110   0.41046   1.000
    C51     C    0.42741   0.40547   0.43391   1.000
    C52     C    0.53240   0.45348   0.46019   1.000
    C53     C    0.48758   0.25664   0.61862   1.000
    C54     C    0.52016   0.27639   0.52771   1.000
    C55     C    0.37074   0.31065   0.55176   1.000
    C56     C    0.36494   0.42772   0.70006   1.000
    C57     C    0.24415   0.48468   0.63676   1.000
    C58     C    0.30017   0.57871   0.67058   1.000
    C59     C    0.39337   0.00077   0.90366   1.000
    C60     C    0.63427   0.88489   0.97933   1.000
    C61     C    0.59157   0.83824   0.89990   1.000
    C62     C    0.69340   0.92267   0.83473   1.000
    C63     C    0.70491   0.99476   0.91360   1.000
    C64     C    0.55027   0.04935   0.74236   1.000
    C65     C    0.40409   0.16726   0.76702   1.000
    C66     C    0.45231   0.01504   0.79216   1.000
    C67     C    0.25569   0.25308   0.95264   1.000
    C68     C    0.27492   0.20133   0.86150   1.000
    C69     C    0.30946   0.31596   0.88570   1.000
    C70     C    0.42817   0.20449   0.03331   1.000
    C71     C    0.48473   0.26898   0.97022   1.000
    C72     C    0.57980   0.11975   0.00278   1.000
    C73     C    0.00333   0.60187   0.23726   1.000
    C74     C    0.88445   0.47987   0.31327   1.000
    C75     C    0.83899   0.56744   0.23372   1.000
    C76     C    0.92309   0.38144   0.16889   1.000
    C77     C    0.99502   0.29946   0.24773   1.000
    C78     C    0.05117   0.39738   0.07618   1.000
    C79     C    0.17005   0.42532   0.10071   1.000
    C80     C    0.01702   0.52893   0.12622   1.000
    C81     C    0.25657   0.48769   0.28637   1.000
    C82     C    0.20594   0.51871   0.19515   1.000
    C83     C    0.31997   0.37072   0.21963   1.000
    C84     C    0.20576   0.36601   0.36697   1.000
    C85     C    0.27011   0.24502   0.30385   1.000
    C86     C    0.11956   0.30024   0.33653   1.000
    C87     C    0.21169   0.82732   0.25288   1.000
    C88     C    0.06016   0.87079   0.22659   1.000
    C89     C    0.13640   0.74831   0.28873   1.000
    C90     C    0.92529   0.99612   0.40421   1.000
    C91     C    0.96994   0.84741   0.37113   1.000
    C92     C    0.89327   0.97535   0.31229   1.000
    C93     C    0.17391   0.78725   0.41263   1.000
    C94     C    0.12976   0.93772   0.44011   1.000
    C95     C    0.25222   0.86335   0.37687   1.000
    C96     C    0.00078   0.07404   0.26401   1.000
    C97     C    0.15075   0.02990   0.29583   1.000
    C98     C    0.02299   0.10475   0.35595   1.000
    C99     C    0.96101   0.21197   0.92057   1.000
    C100    C    0.06681   0.06140   0.89320   1.000
    C101    C    0.11529   0.13588   0.95628   1.000
    C102    C    0.07406   0.92594   0.06949   1.000
    C103    C    0.18000   0.96957   0.03751   1.000
    C104    C    0.12674   0.89457   0.00000   1.000
    C105    C    0.03898   0.17235   0.08025   1.000
    C106    C    0.93095   0.12884   0.10675   1.000
    C107    C    0.88477   0.25117   0.04449   1.000
    C108    C    0.92077   0.00293   0.92935   1.000
    C109    C    0.81713   0.15180   0.96219   1.000
    C110    C    0.86808   0.02414   0.02126   1.000
    C111    C    0.82564   0.96156   0.58675   1.000
    C112    C    0.87033   0.06828   0.56036   1.000
    C113    C    0.74764   0.11482   0.62331   1.000
    C114    C    0.99876   0.07643   0.73726   1.000
    C115    C    0.84911   0.18055   0.70532   1.000
    C116    C    0.97726   0.12921   0.64561   1.000
    C117    C    0.78758   0.03810   0.74686   1.000
    C118    C    0.93896   0.93193   0.77314   1.000
    C119    C    0.86293   0.88485   0.71026   1.000
    C120    C    0.07457   0.92462   0.59614   1.000
    C121    C    0.02953   0.81994   0.62810   1.000
    C122    C    0.10620   0.87178   0.68776   1.000
    C123    C    0.63527   0.89983   0.47616   1.000
    C124    C    0.58165   0.86169   0.40974   1.000
    C125    C    0.46787   0.98590   0.39066   1.000
    C126    C    0.50516   0.08238   0.40465   1.000
    C127    C    0.62150   0.02111   0.45110   1.000
    C128    C    0.56355   0.91744   0.54684   1.000
    C129    C    0.54620   0.76662   0.42790   1.000
    C130    C    0.67318   0.81434   0.34668   1.000
    C131    C    0.76641   0.80276   0.48995   1.000
    C132    C    0.41905   0.98609   0.31537   1.000
    C133    C    0.46394   0.63667   0.14298   1.000
    C134    C    0.55660   0.58247   0.07719   1.000
    C135    C    0.54649   0.46784   0.05858   1.000
    C136    C    0.41277   0.50354   0.07207   1.000
    C137    C    0.35697   0.62082   0.11753   1.000
    C138    C    0.51675   0.56758   0.21420   1.000
    C139    C    0.68665   0.54931   0.09597   1.000
    C140    C    0.51347   0.67187   0.01361   1.000
    C141    C    0.42980   0.76778   0.15611   1.000
    C142    C    0.59577   0.41819   0.98357   1.000
    C143    C    0.90011   0.46541   0.80998   1.000
    C144    C    0.86095   0.55699   0.74412   1.000
    C145    C    0.98544   0.54778   0.72453   1.000
    C146    C    0.08304   0.41516   0.73772   1.000
    C147    C    0.02200   0.35939   0.78392   1.000
    C148    C    0.91809   0.51899   0.88083   1.000
    C149    C    0.76503   0.68623   0.76317   1.000
    C150    C    0.81328   0.51289   0.68107   1.000
    C151    C    0.80299   0.43067   0.82403   1.000
    C152    C    0.98495   0.59639   0.64936   1.000
    C153    C    0.36495   0.53521   0.52412   1.000
    C154    C    0.41765   0.44335   0.58982   1.000
    C155    C    0.53271   0.45300   0.60951   1.000
    C156    C    0.49756   0.58580   0.59648   1.000
    C157    C    0.38087   0.64136   0.55027   1.000
    C158    C    0.43601   0.48216   0.45313   1.000
    C159    C    0.45099   0.31406   0.57052   1.000
    C160    C    0.32619   0.48688   0.65292   1.000
    C161    C    0.23322   0.56966   0.51013   1.000
    C162    C    0.58091   0.40443   0.68469   1.000
    C163    C    0.53514   0.09958   0.85643   1.000
    C164    C    0.44320   0.13760   0.92261   1.000
    C165    C    0.45313   0.01340   0.94149   1.000
    C166    C    0.58658   0.91683   0.92757   1.000
    C167    C    0.64207   0.97812   0.88142   1.000
    C168    C    0.48125   0.08243   0.78545   1.000
    C169    C    0.31307   0.23269   0.90421   1.000
    C170    C    0.48726   0.18496   0.98585   1.000
    C171    C    0.56963   0.19666   0.84334   1.000
    C172    C    0.40470   0.01331   0.01679   1.000
    C173    C    0.10121   0.36297   0.19008   1.000
    C174    C    0.13968   0.41661   0.25632   1.000
    C175    C    0.01510   0.53075   0.27525   1.000
    C176    C    0.91740   0.49453   0.26148   1.000
    C177    C    0.97876   0.37791   0.21541   1.000
    C178    C    0.08450   0.43321   0.11928   1.000
    C179    C    0.23633   0.45040   0.23797   1.000
    C180    C    0.18596   0.32651   0.31953   1.000
    C181    C    0.19817   0.23216   0.17626   1.000
    C182    C    0.01449   0.58036   0.35040   1.000
    C183    C    0.12621   0.83456   0.27079   1.000
    C184    C    0.95769   0.93594   0.35707   1.000
    C185    C    0.16594   0.87271   0.39531   1.000
    C186    C    0.06214   0.04139   0.31054   1.000
    C187    C    0.03826   0.12653   0.93793   1.000
    C188    C    0.10280   0.95807   0.02289   1.000
    C189    C    0.96070   0.16501   0.06246   1.000
    C190    C    0.89317   0.06335   0.97637   1.000
    C191    C    0.83386   0.03895   0.60473   1.000
    C192    C    0.93770   0.10450   0.69058   1.000
    C193    C    0.87309   0.96100   0.72881   1.000
    C194    C    0.04189   0.89624   0.64284   1.000
    C195    C    0.07728   0.92189   0.33343   1.000
    C196    C    0.99876   0.07751   0.99992   1.000
    C197    C    0.92235   0.00018   0.66674   1.000
    C198    C    0.85390   0.82467   0.47789   1.000
    C199    C    0.78894   0.70002   0.51216   1.000
    C200    C    0.45729   0.02439   0.26228   1.000
    C201    C    0.34538   0.94799   0.30596   1.000
    C202    C    0.32065   0.85361   0.14376   1.000
    C203    C    0.50993   0.79183   0.17820   1.000
    C204    C    0.51963   0.45510   0.93025   1.000
    C205    C    0.70731   0.34554   0.97458   1.000
    C206    C    0.82549   0.32174   0.81180   1.000
    C207    C    0.69950   0.50994   0.84660   1.000
    C208    C    0.02266   0.52044   0.59591   1.000
    C209    C    0.94705   0.70732   0.64037   1.000
    C210    C    0.14697   0.67854   0.52225   1.000
    C211    C    0.20899   0.49016   0.48764   1.000
    C212    C    0.54275   0.48029   0.73815   1.000
    C213    C    0.65404   0.29356   0.69374   1.000
    C214    C    0.67883   0.17476   0.85586   1.000
    C215    C    0.48972   0.29960   0.82136   1.000
    C216    C    0.48132   0.97544   0.06981   1.000
    C217    C    0.29314   0.05116   0.02635   1.000
    C218    C    0.17526   0.14584   0.18858   1.000
    C219    C    0.30175   0.20875   0.15365   1.000
    C220    C    0.97522   0.54330   0.40363   1.000
    C221    C    0.05305   0.65346   0.35959   1.000
    O222    O    0.46732   0.68475   0.00681   1.000
    O223    O    0.11477   0.92632   0.01145   1.000
    O224    O    0.53353   0.15235   0.99432   1.000
    O225    O    0.51469   0.71278   0.02136   1.000
    O226    O    0.53504   0.62717   0.04540   1.000
    O227    O    0.54334   0.65197   0.99004   1.000
    O228    O    0.34892   0.03223   0.02157   1.000
    O229    O    0.44301   0.99437   0.04330   1.000
    O230    O    0.42892   0.01335   0.97914   1.000
    O231    O    0.38921   0.51038   0.04612   1.000
    O232    O    0.88062   0.04375   0.99882   1.000
    O233    O    0.14140   0.96382   0.03020   1.000
    O234    O    0.08843   0.94201   0.04619   1.000
    O235    O    0.05078   0.01779   0.01140   1.000
    O236    O    0.45771   0.19472   0.00958   1.000
    O237    O    0.92274   0.20809   0.05347   1.000
    O238    O    0.71560   0.53045   0.07189   1.000
    O239    O    0.47963   0.48569   0.06533   1.000
    O240    O    0.55155   0.52515   0.06789   1.000
    O241    O    0.57610   0.43248   0.07767   1.000
    O242    O    0.57113   0.44301   0.02107   1.000
    O243    O    0.99984   0.16868   0.07136   1.000
    O244    O    0.94583   0.14693   0.08460   1.000
    O245    O    0.97973   0.12126   0.03119   1.000
    O246    O    0.42560   0.98768   0.11793   1.000
    O247    O    0.41005   0.46714   0.08611   1.000
    O248    O    0.38487   0.56218   0.09480   1.000
    O249    O    0.06783   0.41530   0.09773   1.000
    O250    O    0.62163   0.56589   0.08658   1.000
    O251    O    0.51027   0.60957   0.11009   1.000
    O252    O    0.32603   0.65974   0.10114   1.000
    O253    O    0.68851   0.58935   0.10500   1.000
    O254    O    0.70541   0.51542   0.11753   1.000
    O255    O    0.12727   0.42926   0.10999   1.000
    O256    O    0.41046   0.62875   0.13026   1.000
    O257    O    0.33075   0.61926   0.14075   1.000
    O258    O    0.05076   0.48107   0.12275   1.000
    O259    O    0.09286   0.39809   0.15468   1.000
    O260    O    0.44687   0.70222   0.14954   1.000
    O261    O    0.49035   0.60213   0.17859   1.000
    O262    O    0.37523   0.81069   0.14993   1.000
    O263    O    0.24996   0.22045   0.16496   1.000
    O264    O    0.46986   0.77980   0.16715   1.000
    O265    O    0.27257   0.07288   0.17731   1.000
    O266    O    0.41358   0.01216   0.21417   1.000
    O267    O    0.95093   0.37968   0.19215   1.000
    O268    O    0.18671   0.18900   0.18242   1.000
    O269    O    0.14969   0.29756   0.18317   1.000
    O270    O    0.03999   0.37044   0.20274   1.000
    O271    O    0.12045   0.38979   0.22320   1.000
    O272    O    0.22114   0.48456   0.21656   1.000
    O273    O    0.53099   0.51962   0.21095   1.000
    O274    O    0.55539   0.57187   0.22354   1.000
    O275    O    0.48201   0.58567   0.23560   1.000
    O276    O    0.98689   0.33868   0.23157   1.000
    O277    O    0.94808   0.43622   0.23844   1.000
    O278    O    0.27815   0.41056   0.22880   1.000
    O279    O    0.09318   0.85267   0.24869   1.000
    O280    O    0.87820   0.53098   0.24760   1.000
    O281    O    0.00921   0.56631   0.25625   1.000
    O282    O    0.18800   0.43351   0.24714   1.000
    O283    O    0.24645   0.46905   0.26217   1.000
    O284    O    0.16895   0.83094   0.26183   1.000
    O285    O    0.07739   0.47368   0.26578   1.000
    O286    O    0.16282   0.37156   0.28792   1.000
    O287    O    0.96625   0.51264   0.26836   1.000
    O288    O    0.90093   0.48720   0.28738   1.000
    O289    O    0.43817   0.00524   0.28883   1.000
    O290    O    0.03146   0.05772   0.28727   1.000
    O291    O    0.13130   0.79143   0.27976   1.000
    O292    O    0.10175   0.87822   0.30211   1.000
    O293    O    0.01480   0.55555   0.31283   1.000
    O294    O    0.10644   0.03565   0.30318   1.000
    O295    O    0.65347   0.80455   0.32289   1.000
    O296    O    0.22804   0.28577   0.31169   1.000
    O297    O    0.38221   0.96704   0.31066   1.000
    O298    O    0.06971   0.98164   0.32198   1.000
    O299    O    0.04256   0.07307   0.33324   1.000
    O300    O    0.92548   0.95565   0.33468   1.000
    O301    O    0.44346   0.98600   0.35301   1.000
    O302    O    0.15276   0.31338   0.32803   1.000
    O303    O    0.19586   0.34626   0.34325   1.000
    O304    O    0.68695   0.84696   0.33827   1.000
    O305    O    0.01749   0.92891   0.34525   1.000
    O306    O    0.12161   0.89730   0.36437   1.000
    O307    O    0.71380   0.77235   0.35455   1.000
    O308    O    0.62742   0.83802   0.37821   1.000
    O309    O    0.03377   0.61691   0.35499   1.000
    O310    O    0.99485   0.56183   0.37701   1.000
    O311    O    0.51324   0.09826   0.37879   1.000
    O312    O    0.96381   0.89168   0.36410   1.000
    O313    O    0.94149   0.96603   0.38064   1.000
    O314    O    0.20908   0.86803   0.38609   1.000
    O315    O    0.52777   0.75644   0.40363   1.000
    O316    O    0.48652   0.03414   0.39765   1.000
    O317    O    0.52476   0.92380   0.40020   1.000
    O318    O    0.43167   0.99229   0.40956   1.000
    O319    O    0.16993   0.82998   0.40397   1.000
    O320    O    0.14785   0.90521   0.41771   1.000
    O321    O    0.98731   0.58690   0.45175   1.000
    O322    O    0.46845   0.12174   0.41841   1.000
    O323    O    0.56333   0.05175   0.42788   1.000
    O324    O    0.56393   0.81415   0.41882   1.000
    O325    O    0.60846   0.88076   0.44295   1.000
    O326    O    0.41845   0.51663   0.43179   1.000
    O327    O    0.66133   0.01264   0.43511   1.000
    O328    O    0.58585   0.72497   0.43722   1.000
    O329    O    0.51140   0.78231   0.44918   1.000
    O330    O    0.43171   0.44382   0.44352   1.000
    O331    O    0.62839   0.96047   0.46363   1.000
    O332    O    0.61945   0.04891   0.47443   1.000
    O333    O    0.48420   0.46782   0.45666   1.000
    O334    O    0.40048   0.50868   0.48862   1.000
    O335    O    0.70084   0.85129   0.48306   1.000
    O336    O    0.59941   0.90864   0.51150   1.000
    O337    O    0.81016   0.81371   0.48392   1.000
    O338    O    0.92665   0.72758   0.48888   1.000
    O339    O    0.22110   0.52991   0.49888   1.000
    O340    O    0.77767   0.75139   0.50105   1.000
    O341    O    0.01103   0.57546   0.54789   1.000
    O342    O    0.38323   0.66717   0.52720   1.000
    O343    O    0.19009   0.62410   0.51619   1.000
    O344    O    0.29908   0.55243   0.51712   1.000
    O345    O    0.37291   0.58828   0.53719   1.000
    O346    O    0.39130   0.48928   0.55697   1.000
    O347    O    0.48558   0.29522   0.54912   1.000
    O348    O    0.51554   0.95118   0.54331   1.000
    O349    O    0.56711   0.87509   0.55605   1.000
    O350    O    0.58142   0.93403   0.56847   1.000
    O351    O    0.34134   0.67240   0.56647   1.000
    O352    O    0.43921   0.61358   0.57337   1.000
    O353    O    0.41086   0.31235   0.56114   1.000
    O354    O    0.85210   0.05362   0.58254   1.000
    O355    O    0.53460   0.58832   0.58280   1.000
    O356    O    0.43432   0.37871   0.58017   1.000
    O357    O    0.46929   0.28535   0.59457   1.000
    O358    O    0.56873   0.42413   0.59053   1.000
    O359    O    0.82975   0.00026   0.59574   1.000
    O360    O    0.47518   0.44818   0.59966   1.000
    O361    O    0.37192   0.46512   0.62137   1.000
    O362    O    0.00380   0.55841   0.62263   1.000
    O363    O    0.05823   0.91043   0.61949   1.000
    O364    O    0.51513   0.51940   0.60299   1.000
    O365    O    0.49002   0.60936   0.62251   1.000
    O366    O    0.79075   0.07688   0.61402   1.000
    O367    O    0.87811   0.01957   0.63574   1.000
    O368    O    0.55681   0.42871   0.64710   1.000
    O369    O    0.03571   0.85809   0.63547   1.000
    O370    O    0.80311   0.54237   0.65745   1.000
    O371    O    0.28517   0.48578   0.64484   1.000
    O372    O    0.96600   0.65185   0.64486   1.000
    O373    O    0.98212   0.94821   0.65479   1.000
    O374    O    0.07405   0.88401   0.66530   1.000
    O375    O    0.95748   0.11686   0.66810   1.000
    O376    O    0.98519   0.57208   0.68694   1.000
    O377    O    0.31318   0.53280   0.66175   1.000
    O378    O    0.34556   0.45730   0.67649   1.000
    O379    O    0.84617   0.46697   0.67232   1.000
    O380    O    0.93003   0.05234   0.67866   1.000
    O381    O    0.89772   0.98059   0.69778   1.000
    O382    O    0.77122   0.51388   0.68913   1.000
    O383    O    0.83712   0.53494   0.71260   1.000
    O384    O    0.61747   0.34899   0.68921   1.000
    O385    O    0.56183   0.44236   0.71142   1.000
    O386    O    0.09913   0.39153   0.71172   1.000
    O387    O    0.89340   0.14253   0.69795   1.000
    O388    O    0.96823   0.09047   0.71392   1.000
    O389    O    0.86801   0.92292   0.71953   1.000
    O390    O    0.75463   0.71483   0.73907   1.000
    O391    O    0.03424   0.48147   0.73112   1.000
    O392    O    0.92320   0.55238   0.73432   1.000
    O393    O    0.99272   0.57657   0.74348   1.000
    O394    O    0.83034   0.99955   0.73784   1.000
    O395    O    0.90602   0.94646   0.75097   1.000
    O396    O    0.12248   0.41286   0.75144   1.000
    O397    O    0.05252   0.38728   0.76082   1.000
    O398    O    0.58649   0.42478   0.78600   1.000
    O399    O    0.51576   0.06589   0.76391   1.000
    O400    O    0.81299   0.62161   0.75365   1.000
    O401    O    0.88053   0.51120   0.77705   1.000
    O402    O    0.01350   0.32829   0.76771   1.000
    O403    O    0.72327   0.68782   0.77255   1.000
    O404    O    0.78072   0.70526   0.78454   1.000
    O405    O    0.44267   0.12485   0.77624   1.000
    O406    O    0.96106   0.41240   0.79695   1.000
    O407    O    0.05011   0.33365   0.80700   1.000
    O408    O    0.46678   0.04874   0.78880   1.000
    O409    O    0.50820   0.09101   0.82094   1.000
    O410    O    0.85155   0.44804   0.81700   1.000
    O411    O    0.90910   0.49220   0.84540   1.000
    O412    O    0.81424   0.37620   0.81792   1.000
    O413    O    0.72786   0.34550   0.82282   1.000
    O414    O    0.52967   0.24813   0.83235   1.000
    O415    O    0.75124   0.47031   0.83532   1.000
    O416    O    0.57493   0.41218   0.88205   1.000
    O417    O    0.66774   0.95039   0.85807   1.000
    O418    O    0.62423   0.18571   0.84960   1.000
    O419    O    0.55239   0.14812   0.84988   1.000
    O420    O    0.58861   0.03885   0.86892   1.000
    O421    O    0.48917   0.11859   0.88952   1.000
    O422    O    0.29399   0.21701   0.88286   1.000
    O423    O    0.95185   0.53349   0.87722   1.000
    O424    O    0.87551   0.55728   0.89039   1.000
    O425    O    0.93505   0.48462   0.90222   1.000
    O426    O    0.67349   0.98644   0.89751   1.000
    O427    O    0.61433   0.94747   0.90449   1.000
    O428    O    0.31126   0.27433   0.89496   1.000
    O429    O    0.05253   0.09396   0.91556   1.000
    O430    O    0.58907   0.87753   0.91373   1.000
    O431    O    0.42325   0.00708   0.92257   1.000
    O432    O    0.37813   0.18515   0.91341   1.000
    O433    O    0.28438   0.24289   0.92843   1.000
    O434    O    0.99963   0.16925   0.92925   1.000
    O435    O    0.44816   0.07550   0.93205   1.000
    O436    O    0.46523   0.16128   0.95423   1.000
    O437    O    0.51986   0.96511   0.93453   1.000
    O438    O    0.61042   0.90086   0.95345   1.000
    O439    O    0.90697   0.03314   0.95286   1.000
    O440    O    0.55770   0.43664   0.95691   1.000
    O441    O    0.07677   0.13121   0.94710   1.000
    O442    O    0.01851   0.10202   0.96892   1.000
    O443    O    0.85515   0.10757   0.96928   1.000
    O444    O    0.48599   0.22697   0.97803   1.000
    O445    O    0.65154   0.38186   0.97907   1.000
    O446    O    0.94596   0.07043   0.98814   1.000
    O447    O    0.89417   0.66525   0.50602   1.000
    O448    O    0.34527   0.92677   0.15490   1.000
    O449    O    0.43990   0.89588   0.17213   1.000
    O450    O    0.66486   0.43960   0.84022   1.000
    O451    O    0.07318   0.65452   0.51106   1.000
    O452    O    0.10419   0.56032   0.49375   1.000
    O453    O    0.65453   0.27201   0.84485   1.000
    O454    O    0.55997   0.33443   0.82760   1.000
    O455    O    0.33582   0.10434   0.15985   1.000
loop_
    _geom_bond_atom_site_label_1
    _geom_bond_atom_site_label_2
    _geom_bond_distance
    _geom_bond_site_symmetry_2
    _ccdc_geom_bond_type
    C30    O222      0.53968      .   S
    C140   O222      0.53968      .   S
    C104   O223      0.41289      .   S
    C188   O223      0.41289      .   S
    C72    O224      0.54885  1_554   S
    C170   O224      0.54885      .   S
    C140   O225      0.54894      .   S
    C29    O225      0.54894      .   S
    C140   O226      0.76980      .   S
    C134   O226      0.76980      .   S
    C140   O227      0.54898  1_554   S
    C28    O227      0.54898      .   S
    C172   O228      0.63138      .   S
    C217   O228      0.63138      .   S
    C172   O229      0.64698  1_545   S
    C216   O229      0.64698      .   S
    C172   O230      0.75983  1_554   S
    C165   O230      0.75983      .   S
    C18    O231      0.54831      .   S
    C136   O231      0.54831      .   S
    C110   O232      0.54778  1_554   S
    C190   O232      0.54778      .   S
    C188   O233      0.54749      .   S
    C103   O233      0.54749      .   S
    C188   O234      0.54600      .   S
    C102   O234      0.54600      .   S
    C188   O235      0.75182  1_565   S
    C196   O235      0.75182  1_656   S
    C70    O236      0.54896      .   S
    C170   O236      0.54896  1_556   S
    C107   O237      0.54828      .   S
    C189   O237      0.54828      .   S
    C25    O238      0.54954      .   S
    C139   O238      0.54954      .   S
    C135   O239      0.77267      .   S
    C136   O239      0.77267      .   S
    C135   O240      0.78461      .   S
    C134   O240      0.78461      .   S
    C135   O241      0.54985      .   S
    C17    O241      0.54985      .   S
    C135   O242      0.75977      .   S
    C142   O242      0.75977  1_556   S
    C189   O243      0.54726      .   S
    C105   O243      0.54726  1_455   S
    C189   O244      0.54784      .   S
    C106   O244      0.54784      .   S
    C189   O245      0.75317      .   S
    C196   O245      0.75317  1_556   S
    C216   O246      1.09696      .   S
    C1     O246      1.09696      .   S
    C136   O247      0.54908      .   S
    C19    O247      0.54908      .   S
    C136   O248      0.77276      .   S
    C137   O248      0.77276      .   S
    C78    O249      0.54999      .   S
    C178   O249      0.54999      .   S
    C134   O250      0.76437      .   S
    C139   O250      0.76437      .   S
    C134   O251      0.79449      .   S
    C133   O251      0.79449      .   S
    C21    O252      0.54828      .   S
    C137   O252      0.54828      .   S
    C139   O253      0.54893      .   S
    C27    O253      0.54893      .   S
    C139   O254      0.54907      .   S
    C26    O254      0.54907      .   S
    C79    O255      0.54791      .   S
    C178   O255      0.54791      .   S
    C137   O256      0.77148      .   S
    C133   O256      0.77148      .   S
    C137   O257      0.54925      .   S
    C20    O257      0.54925      .   S
    C178   O258      0.54926      .   S
    C80    O258      0.54926      .   S
    C178   O259      0.77079      .   S
    C173   O259      0.77079      .   S
    C133   O260      0.76314      .   S
    C141   O260      0.76314      .   S
    C133   O261      0.77078      .   S
    C138   O261      0.77078      .   S
    C202   O262      0.64652      .   S
    C141   O262      0.64652      .   S
    C219   O263      0.63346      .   S
    C181   O263      0.63346      .   S
    C141   O264      0.63367      .   S
    C203   O264      0.63367      .   S
    C1     O265      1.13886  1_565   S
    C218   O265      1.13886      .   S
    C1     O266      1.09776  1_565   S
    C200   O266      1.09776      .   S
    C76    O267      0.54924      .   S
    C177   O267      0.54924      .   S
    C181   O268      0.64680      .   S
    C218   O268      0.64680      .   S
    C181   O269      0.76351      .   S
    C173   O269      0.76351      .   S
    C173   O270      0.77161      .   S
    C177   O270      0.77161  1_655   S
    C173   O271      0.79475      .   S
    C174   O271      0.79475      .   S
    C82    O272      0.54905      .   S
    C179   O272      0.54905      .   S
    C24    O273      0.54927      .   S
    C138   O273      0.54927      .   S
    C138   O274      0.54791      .   S
    C23    O274      0.54791      .   S
    C138   O275      0.55000      .   S
    C22    O275      0.55000      .   S
    C177   O276      0.54828      .   S
    C77    O276      0.54828      .   S
    C177   O277      0.77286      .   S
    C176   O277      0.77286      .   S
    C83    O278      0.54895      .   S
    C179   O278      0.54895      .   S
    C88    O279      0.54782      .   S
    C183   O279      0.54782      .   S
    C75    O280      0.54907      .   S
    C176   O280      0.54907      .   S
    C73    O281      0.54993      .   S
    C175   O281      0.54993      .   S
    C179   O282      0.76432      .   S
    C174   O282      0.76432      .   S
    C179   O283      0.54954      .   S
    C81    O283      0.54954      .   S
    C87    O284      0.54726      .   S
    C183   O284      0.54726      .   S
    C174   O285      0.78462      .   S
    C175   O285      0.78462      .   S
    C174   O286      0.76971      .   S
    C180   O286      0.76971      .   S
    C176   O287      0.77269      .   S
    C175   O287      0.77269  1_455   S
    C176   O288      0.54834      .   S
    C74    O288      0.54834      .   S
    C200   O289      0.64703      .   S
    C132   O289      0.64703  1_565   S
    C96    O290      0.54728      .   S
    C186   O290      0.54728      .   S
    C183   O291      0.54827      .   S
    C89    O291      0.54827      .   S
    C183   O292      0.75323      .   S
    C195   O292      0.75323      .   S
    C175   O293      0.76022      .   S
    C182   O293      0.76022      .   S
    C97    O294      0.54755      .   S
    C186   O294      0.54755      .   S
    C14    O295      0.54907      .   S
    C130   O295      0.54907      .   S
    C85    O296      0.54894      .   S
    C180   O296      0.54894      .   S
    C201   O297      0.63139      .   S
    C132   O297      0.63139      .   S
    C186   O298      0.75181  1_545   S
    C195   O298      0.75181      .   S
    C186   O299      0.54779      .   S
    C98    O299      0.54779      .   S
    C92    O300      0.54777      .   S
    C184   O300      0.54777      .   S
    C132   O301      0.76018      .   S
    C125   O301      0.76018      .   S
    C180   O302      0.54884      .   S
    C86    O302      0.54884      .   S
    C180   O303      0.54907      .   S
    C84    O303      0.54907      .   S
    C16    O304      0.54886      .   S
    C130   O304      0.54886      .   S
    C195   O305      0.75188      .   S
    C184   O305      0.75188  1_655   S
    C195   O306      0.75326      .   S
    C185   O306      0.75326      .   S
    C130   O307      0.54893      .   S
    C15    O307      0.54893      .   S
    C130   O308      0.76974      .   S
    C124   O308      0.76974      .   S
    C182   O309      0.63123      .   S
    C221   O309      0.63123      .   S
    C182   O310      0.64724  1_455   S
    C220   O310      0.64724      .   S
    C4     O311      0.54835      .   S
    C126   O311      0.54835      .   S
    C184   O312      0.54750      .   S
    C91    O312      0.54750      .   S
    C184   O313      0.54726      .   S
    C90    O313      0.54726      .   S
    C95    O314      0.54826      .   S
    C185   O314      0.54826      .   S
    C11    O315      0.54952      .   S
    C129   O315      0.54952      .   S
    C125   O316      0.77260  1_565   S
    C126   O316      0.77260      .   S
    C125   O317      0.78457      .   S
    C124   O317      0.78457      .   S
    C125   O318      0.55000      .   S
    C3     O318      0.55000      .   S
    C185   O319      0.54717      .   S
    C93    O319      0.54717      .   S
    C185   O320      0.54783      .   S
    C94    O320      0.54783      .   S
    C220   O321      1.09665      .   S
    C0     O321      1.09665      .   S
    C126   O322      0.54907      .   S
    C5     O322      0.54907      .   S
    C126   O323      0.77286      .   S
    C127   O323      0.77286      .   S
    C124   O324      0.76437      .   S
    C129   O324      0.76437      .   S
    C124   O325      0.79477      .   S
    C123   O325      0.79477      .   S
    C50    O326      0.55000      .   S
    C158   O326      0.55000      .   S
    C7     O327      0.54824      .   S
    C127   O327      0.54824      .   S
    C129   O328      0.54893      .   S
    C13    O328      0.54893      .   S
    C129   O329      0.54913      .   S
    C12    O329      0.54913      .   S
    C51    O330      0.54792      .   S
    C158   O330      0.54792      .   S
    C127   O331      0.77179  1_545   S
    C123   O331      0.77179      .   S
    C127   O332      0.54927      .   S
    C6     O332      0.54927      .   S
    C158   O333      0.54929      .   S
    C52    O333      0.54929      .   S
    C158   O334      0.77083      .   S
    C153   O334      0.77083      .   S
    C123   O335      0.76367      .   S
    C131   O335      0.76367      .   S
    C123   O336      0.77078      .   S
    C128   O336      0.77078      .   S
    C198   O337      0.64680      .   S
    C131   O337      0.64680      .   S
    C198   O338      1.13997      .   S
    C0     O338      1.13997      .   S
    C211   O339      0.63353      .   S
    C161   O339      0.63353      .   S
    C131   O340      0.63341      .   S
    C199   O340      0.63341      .   S
    C0     O341      1.09664  1_655   S
    C208   O341      1.09664      .   S
    C48    O342      0.54921      .   S
    C157   O342      0.54921      .   S
    C161   O343      0.64669      .   S
    C210   O343      0.64669      .   S
    C161   O344      0.76362      .   S
    C153   O344      0.76362      .   S
    C153   O345      0.77142      .   S
    C157   O345      0.77142      .   S
    C153   O346      0.79471      .   S
    C154   O346      0.79471      .   S
    C54    O347      0.54912      .   S
    C159   O347      0.54912      .   S
    C10    O348      0.54930      .   S
    C128   O348      0.54930      .   S
    C128   O349      0.54791      .   S
    C9     O349      0.54791      .   S
    C128   O350      0.54999      .   S
    C8     O350      0.54999      .   S
    C157   O351      0.54828      .   S
    C49    O351      0.54828      .   S
    C157   O352      0.77281      .   S
    C156   O352      0.77281      .   S
    C55    O353      0.54894      .   S
    C159   O353      0.54894      .   S
    C112   O354      0.54783      .   S
    C191   O354      0.54783      .   S
    C47    O355      0.54910      .   S
    C156   O355      0.54910      .   S
    C159   O356      0.76438      .   S
    C154   O356      0.76438      .   S
    C159   O357      0.54955      .   S
    C53    O357      0.54955      .   S
    C45    O358      0.54749      .   S
    C155   O358      0.54749      .   S
    C111   O359      0.54735  1_565   S
    C191   O359      0.54735      .   S
    C154   O360      0.78466      .   S
    C155   O360      0.78466      .   S
    C154   O361      0.76971      .   S
    C160   O361      0.76971      .   S
    C208   O362      0.64714      .   S
    C152   O362      0.64714  1_655   S
    C120   O363      0.54728      .   S
    C194   O363      0.54728      .   S
    C156   O364      0.77273      .   S
    C155   O364      0.77273      .   S
    C156   O365      0.54832      .   S
    C46    O365      0.54832      .   S
    C191   O366      0.54826      .   S
    C113   O366      0.54826      .   S
    C191   O367      0.75319      .   S
    C197   O367      0.75319      .   S
    C155   O368      0.76040      .   S
    C162   O368      0.76040      .   S
    C121   O369      0.54751      .   S
    C194   O369      0.54751      .   S
    C42    O370      0.54905      .   S
    C150   O370      0.54905      .   S
    C57    O371      0.54886      .   S
    C160   O371      0.54886      .   S
    C209   O372      0.63120      .   S
    C152   O372      0.63120      .   S
    C194   O373      0.75192  1_455   S
    C197   O373      0.75192  1_545   S
    C194   O374      0.54777      .   S
    C122   O374      0.54777      .   S
    C116   O375      0.54778      .   S
    C192   O375      0.54778      .   S
    C152   O376      0.76019      .   S
    C145   O376      0.76019      .   S
    C160   O377      0.54884      .   S
    C58    O377      0.54884      .   S
    C160   O378      0.54906      .   S
    C56    O378      0.54906      .   S
    C44    O379      0.54883      .   S
    C150   O379      0.54883      .   S
    C197   O380      0.75184      .   S
    C192   O380      0.75184      .   S
    C197   O381      0.75325  1_545   S
    C193   O381      0.75325      .   S
    C150   O382      0.54885      .   S
    C43    O382      0.54885      .   S
    C150   O383      0.76968      .   S
    C144   O383      0.76968      .   S
    C162   O384      0.63146      .   S
    C213   O384      0.63146      .   S
    C162   O385      0.64692      .   S
    C212   O385      0.64692      .   S
    C32    O386      0.54833      .   S
    C146   O386      0.54833      .   S
    C192   O387      0.54751      .   S
    C115   O387      0.54751      .   S
    C192   O388      0.54727      .   S
    C114   O388      0.54727      .   S
    C119   O389      0.54828      .   S
    C193   O389      0.54828      .   S
    C39    O390      0.54955      .   S
    C149   O390      0.54955      .   S
    C145   O391      0.77270  1_655   S
    C146   O391      0.77270      .   S
    C145   O392      0.78458      .   S
    C144   O392      0.78458      .   S
    C145   O393      0.54668      .   S
    C31    O393      0.54668  1_455   S
    C193   O394      0.54735      .   S
    C117   O394      0.54735  1_545   S
    C193   O395      0.54783      .   S
    C118   O395      0.54783      .   S
    C146   O396      0.54908      .   S
    C33    O396      0.54908      .   S
    C146   O397      0.77284      .   S
    C147   O397      0.77284      .   S
    C212   O398      1.09760      .   S
    C2     O398      1.09760      .   S
    C64    O399      0.55001      .   S
    C168   O399      0.55001      .   S
    C144   O400      0.76428      .   S
    C149   O400      0.76428      .   S
    C144   O401      0.79468      .   S
    C143   O401      0.79468      .   S
    C35    O402      0.54828      .   S
    C147   O402      0.54828      .   S
    C149   O403      0.54892      .   S
    C41    O403      0.54892      .   S
    C149   O404      0.54908      .   S
    C40    O404      0.54908      .   S
    C65    O405      0.54791      .   S
    C168   O405      0.54791      .   S
    C147   O406      0.77147  1_455   S
    C143   O406      0.77147      .   S
    C147   O407      0.54915      .   S
    C34    O407      0.54915      .   S
    C168   O408      0.54933      .   S
    C66    O408      0.54933      .   S
    C168   O409      0.77075      .   S
    C163   O409      0.77075      .   S
    C143   O410      0.76355      .   S
    C151   O410      0.76355      .   S
    C143   O411      0.77079      .   S
    C148   O411      0.77079      .   S
    C206   O412      0.64674      .   S
    C151   O412      0.64674      .   S
    C206   O413      1.13969      .   S
    C2     O413      1.13969      .   S
    C215   O414      0.63353      .   S
    C171   O414      0.63353      .   S
    C151   O415      0.63348      .   S
    C207   O415      0.63348      .   S
    C2     O416      1.09532      .   S
    C204   O416      1.09532      .   S
    C62    O417      0.54923      .   S
    C167   O417      0.54923      .   S
    C171   O418      0.64660      .   S
    C214   O418      0.64660      .   S
    C171   O419      0.76334      .   S
    C163   O419      0.76334      .   S
    C163   O420      0.77164      .   S
    C167   O420      0.77164  1_565   S
    C163   O421      0.79457      .   S
    C164   O421      0.79457      .   S
    C68    O422      0.54910      .   S
    C169   O422      0.54910      .   S
    C38    O423      0.54929      .   S
    C148   O423      0.54929      .   S
    C148   O424      0.54792      .   S
    C37    O424      0.54792      .   S
    C148   O425      0.54998      .   S
    C36    O425      0.54998      .   S
    C167   O426      0.54823      .   S
    C63    O426      0.54823      .   S
    C167   O427      0.77281      .   S
    C166   O427      0.77281      .   S
    C69    O428      0.54892      .   S
    C169   O428      0.54892      .   S
    C100   O429      0.54784      .   S
    C187   O429      0.54784      .   S
    C61    O430      0.54905      .   S
    C166   O430      0.54905      .   S
    C59    O431      0.54999      .   S
    C165   O431      0.54999      .   S
    C169   O432      0.76430      .   S
    C164   O432      0.76430      .   S
    C169   O433      0.54953      .   S
    C67    O433      0.54953      .   S
    C99    O434      0.54727      .   S
    C187   O434      0.54727  1_455   S
    C164   O435      0.78450      .   S
    C165   O435      0.78450      .   S
    C164   O436      0.76976      .   S
    C170   O436      0.76976      .   S
    C166   O437      0.77259      .   S
    C165   O437      0.77259  1_545   S
    C166   O438      0.54831      .   S
    C60    O438      0.54831      .   S
    C108   O439      0.54725      .   S
    C190   O439      0.54725      .   S
    C204   O440      0.64732      .   S
    C142   O440      0.64732      .   S
    C187   O441      0.54826      .   S
    C101   O441      0.54826      .   S
    C187   O442      0.75327      .   S
    C196   O442      0.75327  1_655   S
    C109   O443      0.54745      .   S
    C190   O443      0.54745      .   S
    C71    O444      0.54890      .   S
    C170   O444      0.54890      .   S
    C205   O445      0.63102      .   S
    C142   O445      0.63102      .   S
    C190   O446      0.75181      .   S
    C196   O446      0.75181      .   S
    C199   O447      1.18703      .   S
    C0     O447      1.18703      .   S
    C202   O448      1.14114      .   S
    C1     O448      1.14114      .   S
    C203   O449      1.18326      .   S
    C1     O449      1.18326      .   S
    C207   O450      1.18603      .   S
    C2     O450      1.18603      .   S
    C210   O451      1.14048      .   S
    C0     O451      1.14048  1_655   S
    C211   O452      1.18556      .   S
    C0     O452      1.18556  1_655   S
    C214   O453      1.14120      .   S
    C2     O453      1.14120      .   S
    C215   O454      1.18400      .   S
    C2     O454      1.18400      .   S
    C219   O455      1.18703      .   S
    C1     O455      1.18703  1_565   S
