# CIF file generated by openbabel 2.4.90, see http://openbabel.sf.net
data_I
_chemical_name_common ''
_cell_length_a 16.019
_cell_length_b 20.377
_cell_length_c 12.161
_cell_angle_alpha 114.729
_cell_angle_beta 98.091
_cell_angle_gamma 89.99
_space_group_name_H-M_alt 'P 1'
_space_group_name_Hall 'P 1'
loop_
    _symmetry_equiv_pos_as_xyz
    x,y,z
loop_
    _atom_site_label
    _atom_site_type_symbol
    _atom_site_fract_x
    _atom_site_fract_y
    _atom_site_fract_z
    _atom_site_occupancy
    Lv0     Lv   0.87509   0.55890   0.00026   1.000
    Lv1     Lv   0.62492   0.94557   0.99977   1.000
    Lv2     Lv   0.68949   0.13432   0.55546   1.000
    Lv3     Lv   0.87509   0.05891   0.00026   1.000
    Lv4     Lv   0.62492   0.44558   0.99977   1.000
    Lv5     Lv   0.12492   0.94557   0.99977   1.000
    Lv6     Lv   0.37510   0.55890   0.00023   1.000
    Lv7     Lv   0.37508   0.05440   0.00025   1.000
    Lv8     Lv   0.18949   0.63431   0.55546   1.000
    Lv9     Lv   0.12492   0.44557   0.99973   1.000
    Lv10    Lv   0.31051   0.36566   0.44456   1.000
    Lv11    Lv   0.87473   0.45971   0.30000   1.000
    Lv12    Lv   0.06027   0.35654   0.44441   1.000
    Lv13    Lv   0.56027   0.85654   0.44446   1.000
    Lv14    Lv   0.93973   0.64343   0.55558   1.000
    Lv15    Lv   0.31051   0.86565   0.44456   1.000
    Lv16    Lv   0.87473   0.95971   0.30000   1.000
    Lv17    Lv   0.81051   0.86566   0.44456   1.000
    Lv18    Lv   0.81051   0.36566   0.44456   1.000
    Lv19    Lv   0.93973   0.14343   0.55558   1.000
    Lv20    Lv   0.06027   0.85654   0.44445   1.000
    Lv21    Lv   0.43974   0.14343   0.55558   1.000
    Lv22    Lv   0.43974   0.64343   0.55558   1.000
    Lv23    Lv   0.18949   0.13431   0.55546   1.000
    Lv24    Lv   0.68949   0.63431   0.55546   1.000
    Lv25    Lv   0.56026   0.35654   0.44446   1.000
    Lv26    Lv   0.37473   0.45971   0.10000   1.000
