# CIF file generated by openbabel 2.4.90, see http://openbabel.sf.net
data_I
_chemical_name_common ''
_cell_length_a 16.019
_cell_length_b 20.377
_cell_length_c 12.161
_cell_angle_alpha 114.729
_cell_angle_beta 98.091
_cell_angle_gamma 89.99
_space_group_name_H-M_alt 'P 1'
_space_group_name_Hall 'P 1'
loop_
    _symmetry_equiv_pos_as_xyz
    x,y,z
loop_
    _atom_site_label
    _atom_site_type_symbol
    _atom_site_fract_x
    _atom_site_fract_y
    _atom_site_fract_z
    _atom_site_occupancy
    N0      N    0.87509   0.55890   0.00026   1.000
    N1      N    0.62492   0.94557   0.99977   1.000
    N2      N    0.68949   0.13432   0.55546   1.000
    N3      N    0.87509   0.05891   0.00026   1.000
    N4      N    0.62492   0.44558   0.99977   1.000
    N5      N    0.12492   0.94557   0.99977   1.000
    N6      N    0.37510   0.55890   0.00023   1.000
    N7      N    0.37508   0.05440   0.00025   1.000
    N8      N    0.18949   0.63431   0.55546   1.000
    N9      N    0.12492   0.44557   0.99973   1.000
    N10     N    0.31051   0.36566   0.44456   1.000
    N11     N    0.06027   0.35654   0.44441   1.000
    N12     N    0.56027   0.85654   0.44446   1.000
    N13     N    0.93973   0.64343   0.55558   1.000
    N14     N    0.31051   0.86565   0.44456   1.000
    N15     N    0.81051   0.86566   0.44456   1.000
    N16     N    0.81051   0.36566   0.44456   1.000
    N17     N    0.93973   0.14343   0.55558   1.000
    N18     N    0.06027   0.85654   0.44445   1.000
    N19     N    0.43974   0.14343   0.55558   1.000
    N20     N    0.43974   0.64343   0.55558   1.000
    N21     N    0.18949   0.13431   0.55546   1.000
    N22     N    0.68949   0.63431   0.55546   1.000
    N23     N    0.56026   0.35654   0.44446   1.000
    Zr24    Zr   0.50000   0.99998   0.50001   1.000
    O25     O    0.52132   0.94994   0.48229   1.000
    O26     O    0.47868   0.05003   0.51773   1.000
    O27     O    0.53769   0.98583   0.35271   1.000
    O28     O    0.46231   0.01414   0.64731   1.000
    O29     O    0.58884   0.05654   0.54241   1.000
    O30     O    0.41116   0.94343   0.45761   1.000
    Zr31    Zr   0.75000   0.74998   0.50001   1.000
    O32     O    0.66114   0.78536   0.45739   1.000
    O33     O    0.83886   0.71461   0.54264   1.000
    O34     O    0.71225   0.80944   0.64713   1.000
    O35     O    0.77143   0.79114   0.48231   1.000
    O36     O    0.72857   0.70883   0.51772   1.000
    O37     O    0.78775   0.69165   0.35289   1.000
    Zr38    Zr   0.75000   0.24999   0.50002   1.000
    O39     O    0.66113   0.28537   0.45739   1.000
    O40     O    0.83886   0.21461   0.54264   1.000
    O41     O    0.77143   0.29115   0.48231   1.000
    O42     O    0.72857   0.20883   0.51772   1.000
    O43     O    0.71225   0.30945   0.64714   1.000
    O44     O    0.78775   0.19166   0.35290   1.000
    Zr45    Zr   0.00000   0.99998   0.50001   1.000
    O46     O    0.97868   0.05003   0.51773   1.000
    O47     O    0.02132   0.94994   0.48229   1.000
    O48     O    0.96232   0.01527   0.64731   1.000
    O49     O    0.03769   0.98583   0.35271   1.000
    O50     O    0.08884   0.05654   0.54242   1.000
    O51     O    0.91116   0.94343   0.45761   1.000
    Zr52    Zr   0.00000   0.49998   0.50002   1.000
    O53     O    0.91116   0.44343   0.45761   1.000
    O54     O    0.97869   0.55003   0.51774   1.000
    O55     O    0.02132   0.44994   0.48228   1.000
    O56     O    0.96232   0.51526   0.64732   1.000
    O57     O    0.03769   0.48583   0.35271   1.000
    O58     O    0.08884   0.55654   0.54242   1.000
    Zr59    Zr   0.25000   0.74998   0.50001   1.000
    O60     O    0.33887   0.71460   0.54264   1.000
    O61     O    0.16114   0.78536   0.45739   1.000
    O62     O    0.27143   0.79114   0.48231   1.000
    O63     O    0.21225   0.80944   0.64713   1.000
    O64     O    0.22857   0.70882   0.51772   1.000
    O65     O    0.28776   0.69165   0.35288   1.000
    Zr66    Zr   0.50000   0.49998   0.50002   1.000
    O67     O    0.58884   0.55654   0.54242   1.000
    O68     O    0.47869   0.55003   0.51774   1.000
    O69     O    0.52132   0.44994   0.48230   1.000
    O70     O    0.46232   0.51526   0.64731   1.000
    O71     O    0.53769   0.48583   0.35272   1.000
    O72     O    0.41116   0.44343   0.45761   1.000
    Zr73    Zr   0.25000   0.24999   0.50000   1.000
    O74     O    0.16114   0.28536   0.45737   1.000
    O75     O    0.33886   0.21461   0.54263   1.000
    O76     O    0.22857   0.20883   0.51771   1.000
    O77     O    0.28775   0.19053   0.35288   1.000
    O78     O    0.27143   0.29114   0.48230   1.000
    O79     O    0.21225   0.30944   0.64712   1.000
loop_
    _geom_bond_atom_site_label_1
    _geom_bond_atom_site_label_2
    _geom_bond_distance
    _geom_bond_site_symmetry_2
    _ccdc_geom_bond_type
    Zr24   O25       1.01960      .   S
    N12    O25       1.88976      .   S
    Zr24   O26       1.01959  1_565   S
    N19    O26       1.88974      .   S
    Zr24   O27       1.87841      .   S
    N1     O27       4.44865  1_556   S
    Zr24   O28       1.87845  1_565   S
    N7     O28       4.44858  1_554   S
    Zr24   O29       1.70759  1_565   S
    N2     O29       2.20341      .   S
    Zr24   O30       1.70759      .   S
    N14    O30       2.20344      .   S
    Zr31   O32       1.70858      .   S
    N12    O32       2.20403      .   S
    Zr31   O33       1.70859      .   S
    N13    O33       2.20405      .   S
    Zr31   O34       1.87759      .   S
    N1     O34       4.44706      .   S
    Zr31   O35       1.01961      .   S
    N15    O35       1.89004      .   S
    Zr31   O36       1.01962      .   S
    N22    O36       1.89006      .   S
    Zr31   O37       1.87216      .   S
    N0     O37       4.43242      .   S
    Zr38   O39       1.70859      .   S
    N23    O39       2.20404      .   S
    Zr38   O40       1.70859      .   S
    N17    O40       2.20405      .   S
    Zr38   O41       1.01961      .   S
    N16    O41       1.89004      .   S
    Zr38   O42       1.01961      .   S
    N2     O42       1.89005      .   S
    Zr38   O43       1.87761      .   S
    N4     O43       4.44705      .   S
    Zr38   O44       1.87210      .   S
    N3     O44       4.43249      .   S
    Zr45   O46       1.01962  1_465   S
    N17    O46       1.88979      .   S
    Zr45   O47       1.01962      .   S
    N18    O47       1.88978      .   S
    Zr45   O48       1.87297  1_465   S
    N3     O48       4.43404  1_554   S
    Zr45   O49       1.87842      .   S
    N5     O49       4.44863  1_556   S
    Zr45   O50       1.70760  1_565   S
    N21    O50       2.20340      .   S
    Zr45   O51       1.70764  1_455   S
    N15    O51       2.20348      .   S
    Zr52   O53       1.70765  1_455   S
    N16    O53       2.20344      .   S
    Zr52   O54       1.01961  1_455   S
    N13    O54       1.88978      .   S
    Zr52   O55       1.01955      .   S
    N11    O55       1.88969      .   S
    Zr52   O56       1.87293  1_455   S
    N0     O56       4.43400  1_554   S
    Zr52   O57       1.87856      .   S
    N9     O57       4.44902  1_556   S
    Zr52   O58       1.70760      .   S
    N8     O58       2.20341      .   S
    Zr59   O60       1.70861      .   S
    N20    O60       2.20407      .   S
    Zr59   O61       1.70858      .   S
    N18    O61       2.20403      .   S
    Zr59   O62       1.01962      .   S
    N14    O62       1.89005      .   S
    Zr59   O63       1.87760      .   S
    N5     O63       4.44707      .   S
    Zr59   O64       1.01961      .   S
    N8     O64       1.89004      .   S
    Zr59   O65       1.87219      .   S
    N6     O65       4.43271      .   S
    Zr66   O67       1.70758      .   S
    N22    O67       2.20340      .   S
    Zr66   O68       1.01958      .   S
    N20    O68       1.88973      .   S
    Zr66   O69       1.01957      .   S
    N23    O69       1.88971      .   S
    Zr66   O70       1.87282      .   S
    N6     O70       4.43367  1_554   S
    Zr66   O71       1.87844      .   S
    N4     O71       4.44866  1_556   S
    Zr66   O72       1.70759      .   S
    N10    O72       2.20341      .   S
    Zr73   O74       1.70862      .   S
    N11    O74       2.20408      .   S
    Zr73   O75       1.70864      .   S
    N19    O75       2.20409      .   S
    Zr73   O76       1.01967      .   S
    N21    O76       1.89012      .   S
    Zr73   O77       1.87755      .   S
    N7     O77       4.44706      .   S
    Zr73   O78       1.01957      .   S
    N10    O78       1.88999      .   S
    Zr73   O79       1.87759      .   S
    N9     O79       4.44687      .   S
