# CIF file generated by openbabel 2.4.90, see http://openbabel.sf.net
data_I
_chemical_name_common ''
_cell_length_a 16.019
_cell_length_b 20.377
_cell_length_c 12.161
_cell_angle_alpha 114.729
_cell_angle_beta 98.091
_cell_angle_gamma 89.99
_space_group_name_H-M_alt 'P 1'
_space_group_name_Hall 'P 1'
loop_
    _symmetry_equiv_pos_as_xyz
    x,y,z
loop_
    _atom_site_label
    _atom_site_type_symbol
    _atom_site_fract_x
    _atom_site_fract_y
    _atom_site_fract_z
    _atom_site_occupancy
    Zr0     Zr   0.00001   0.99999   0.50002   1.000
    Zr1     Zr   0.00001   0.49998   0.50002   1.000
    Zr2     Zr   0.50000   0.99999   0.50002   1.000
    Zr3     Zr   0.50000   0.49998   0.50002   1.000
    Zr4     Zr   0.25000   0.24999   0.50001   1.000
    Zr5     Zr   0.25000   0.74998   0.50001   1.000
    Zr6     Zr   0.75000   0.24999   0.50002   1.000
    Zr7     Zr   0.75000   0.74998   0.50001   1.000
    Zr8     Zr   0.09803   0.24335   0.35060   1.000
    Zr9     Zr   0.09803   0.74335   0.35065   1.000
    Zr10    Zr   0.59803   0.24335   0.35065   1.000
    Zr11    Zr   0.59803   0.74335   0.35065   1.000
    Zr12    Zr   0.15234   0.06716   0.64821   1.000
    Zr13    Zr   0.15234   0.56716   0.64822   1.000
    Zr14    Zr   0.65233   0.06716   0.64820   1.000
    Zr15    Zr   0.65233   0.56716   0.64822   1.000
    Zr16    Zr   0.40197   0.25662   0.64938   1.000
    Zr17    Zr   0.40197   0.75662   0.64938   1.000
    Zr18    Zr   0.90197   0.25662   0.64938   1.000
    Zr19    Zr   0.90197   0.75662   0.64938   1.000
    Zr20    Zr   0.34767   0.43280   0.35181   1.000
    Zr21    Zr   0.34767   0.93280   0.35181   1.000
    Zr22    Zr   0.84766   0.43281   0.35181   1.000
    Zr23    Zr   0.84766   0.93281   0.35180   1.000
    O24     O    0.17402   0.24667   0.42530   1.000
    O25     O    0.17402   0.74666   0.42533   1.000
    O26     O    0.67401   0.24667   0.42534   1.000
    O27     O    0.67402   0.74667   0.42533   1.000
    O28     O    0.92383   0.96640   0.42591   1.000
    O29     O    0.92384   0.46640   0.42592   1.000
    O30     O    0.42383   0.96639   0.42592   1.000
    O31     O    0.42384   0.46639   0.42592   1.000
    O32     O    0.82598   0.75330   0.57469   1.000
    O33     O    0.32598   0.75330   0.57469   1.000
    O34     O    0.32598   0.25330   0.57469   1.000
    O35     O    0.07618   0.53357   0.57412   1.000
    O36     O    0.07617   0.03357   0.57411   1.000
    O37     O    0.57616   0.03357   0.57411   1.000
    O38     O    0.57617   0.53357   0.57412   1.000
    O39     O    0.82598   0.25331   0.57470   1.000
    N40     N    0.87509   0.55890   0.00026   1.000
    O41     O    0.82551   0.63332   0.20576   1.000
    O42     O    0.92463   0.53054   0.79462   1.000
    N43     N    0.62492   0.94557   0.99977   1.000
    O44     O    0.67450   0.86890   0.79426   1.000
    O45     O    0.57537   0.97168   0.20542   1.000
    N46     N    0.68949   0.13432   0.55546   1.000
    O47     O    0.67768   0.11309   0.58482   1.000
    O48     O    0.70714   0.16767   0.53543   1.000
    N49     N    0.87509   0.05891   0.00026   1.000
    O50     O    0.82551   0.13332   0.20577   1.000
    O51     O    0.92463   0.03055   0.79462   1.000
    N52     N    0.62492   0.44558   0.99977   1.000
    O53     O    0.57537   0.47168   0.20542   1.000
    O54     O    0.67450   0.36890   0.79426   1.000
    N55     N    0.12492   0.94557   0.99977   1.000
    O56     O    0.07538   0.97168   0.20542   1.000
    O57     O    0.17450   0.86890   0.79426   1.000
    N58     N    0.37510   0.55890   0.00023   1.000
    O59     O    0.42463   0.53054   0.79460   1.000
    O60     O    0.32551   0.63332   0.20575   1.000
    N61     N    0.37508   0.05440   0.00025   1.000
    O62     O    0.42463   0.02829   0.79461   1.000
    O63     O    0.32550   0.13107   0.20577   1.000
    N64     N    0.18949   0.63431   0.55546   1.000
    O65     O    0.17768   0.61309   0.58483   1.000
    O66     O    0.20714   0.66767   0.53543   1.000
    N67     N    0.12492   0.44557   0.99973   1.000
    O68     O    0.07538   0.47168   0.20540   1.000
    O69     O    0.17450   0.36890   0.79424   1.000
    N70     N    0.31051   0.36566   0.44456   1.000
    O71     O    0.32232   0.38688   0.41520   1.000
    O72     O    0.29286   0.33230   0.46460   1.000
    N73     N    0.87473   0.45971   0.30000   1.000
    O74     O    0.86796   0.45298   0.31295   1.000
    N75     N    0.06027   0.35654   0.44441   1.000
    O76     O    0.07228   0.32074   0.41474   1.000
    O77     O    0.04264   0.39990   0.46454   1.000
    N78     N    0.56027   0.85654   0.44446   1.000
    O79     O    0.57227   0.82074   0.41477   1.000
    O80     O    0.54263   0.89990   0.46458   1.000
    N81     N    0.93973   0.64343   0.55558   1.000
    O82     O    0.92772   0.67923   0.58526   1.000
    O83     O    0.95737   0.60007   0.53546   1.000
    N84     N    0.31051   0.86565   0.44456   1.000
    O85     O    0.32233   0.88688   0.41520   1.000
    O86     O    0.29286   0.83230   0.46460   1.000
    N87     N    0.87473   0.95971   0.30000   1.000
    O88     O    0.86796   0.95299   0.31295   1.000
    N89     N    0.81051   0.86566   0.44456   1.000
    O90     O    0.79286   0.83230   0.46460   1.000
    O91     O    0.82232   0.88688   0.41520   1.000
    N92     N    0.81051   0.36566   0.44456   1.000
    O93     O    0.82232   0.38688   0.41520   1.000
    O94     O    0.79286   0.33230   0.46460   1.000
    N95     N    0.93973   0.14343   0.55558   1.000
    O96     O    0.95737   0.10007   0.53546   1.000
    O97     O    0.92772   0.17923   0.58526   1.000
    N98     N    0.06027   0.85654   0.44445   1.000
    O99     O    0.07228   0.82074   0.41477   1.000
    O100    O    0.04264   0.89990   0.46458   1.000
    N101    N    0.43974   0.14343   0.55558   1.000
    O102    O    0.45737   0.10007   0.53546   1.000
    O103    O    0.42773   0.17923   0.58526   1.000
    N104    N    0.43974   0.64343   0.55558   1.000
    O105    O    0.45737   0.60007   0.53546   1.000
    O106    O    0.42773   0.67923   0.58526   1.000
    N107    N    0.18949   0.13431   0.55546   1.000
    O108    O    0.17768   0.11309   0.58482   1.000
    O109    O    0.20714   0.16767   0.53543   1.000
    N110    N    0.68949   0.63431   0.55546   1.000
    O111    O    0.67768   0.61309   0.58483   1.000
    O112    O    0.70714   0.66767   0.53543   1.000
    N113    N    0.56026   0.35654   0.44446   1.000
    O114    O    0.57227   0.32074   0.41477   1.000
    O115    O    0.54263   0.39990   0.46458   1.000
    N116    N    0.37473   0.45971   0.10000   1.000
loop_
    _geom_bond_atom_site_label_1
    _geom_bond_atom_site_label_2
    _geom_bond_distance
    _geom_bond_site_symmetry_2
    _ccdc_geom_bond_type
    Zr8    O24       1.39599      .   S
    Zr4    O24       1.39599      .   S
    Zr9    O25       1.39585      .   S
    Zr5    O25       1.39585      .   S
    Zr10   O26       1.39588      .   S
    Zr6    O26       1.39588      .   S
    Zr11   O27       1.39586      .   S
    Zr7    O27       1.39586      .   S
    Zr23   O28       1.39437      .   S
    Zr0    O28       1.39437  1_455   S
    Zr22   O29       1.39438      .   S
    Zr1    O29       1.39438  1_455   S
    Zr21   O30       1.39422      .   S
    Zr2    O30       1.39422      .   S
    Zr20   O31       1.39425      .   S
    Zr3    O31       1.39425      .   S
    Zr7    O32       1.39587      .   S
    Zr19   O32       1.39587      .   S
    Zr5    O33       1.39587      .   S
    Zr17   O33       1.39587      .   S
    Zr4    O34       1.39588      .   S
    Zr16   O34       1.39588      .   S
    Zr1    O35       1.39424      .   S
    Zr13   O35       1.39424      .   S
    Zr0    O36       1.39424  1_565   S
    Zr12   O36       1.39424      .   S
    Zr2    O37       1.39422  1_565   S
    Zr14   O37       1.39422      .   S
    Zr3    O38       1.39425      .   S
    Zr15   O38       1.39425      .   S
    Zr6    O39       1.39585      .   S
    Zr18   O39       1.39585      .   S
    N40    O41       2.56191      .   S
    Zr7    O41       3.74428      .   S
    N40    O42       2.56270  1_554   S
    Zr1    O42       3.74587  1_455   S
    N43    O44       2.57082      .   S
    Zr7    O44       3.75523      .   S
    N43    O45       2.57157  1_556   S
    Zr2    O45       3.75696      .   S
    N46    O47       0.70607      .   S
    Zr14   O47       1.52524      .   S
    N46    O48       0.87137      .   S
    Zr6    O48       2.03921      .   S
    N49    O50       2.56204      .   S
    Zr6    O50       3.74423      .   S
    N49    O51       2.56270  1_554   S
    Zr0    O51       3.74586  1_465   S
    N52    O53       2.57155  1_556   S
    Zr3    O53       3.75692      .   S
    N52    O54       2.57079      .   S
    Zr6    O54       3.75519      .   S
    N55    O56       2.57154  1_556   S
    Zr0    O56       3.75692      .   S
    N55    O57       2.57082      .   S
    Zr5    O57       3.75523      .   S
    N58    O59       2.56248  1_554   S
    Zr3    O59       3.74560      .   S
    N58    O60       2.56217      .   S
    Zr5    O60       3.74434      .   S
    N61    O62       2.57146  1_554   S
    Zr2    O62       3.75677  1_565   S
    N61    O63       2.57086      .   S
    Zr4    O63       3.75523      .   S
    N64    O65       0.70610      .   S
    Zr13   O65       1.52535      .   S
    N64    O66       0.87137      .   S
    Zr5    O66       2.03923      .   S
    N67    O68       2.57178  1_556   S
    Zr1    O68       3.75712      .   S
    N67    O69       2.57062      .   S
    Zr4    O69       3.75506      .   S
    N70    O71       0.70610      .   S
    Zr20   O71       1.52534      .   S
    N70    O72       0.87136      .   S
    Zr4    O72       2.03921      .   S
    N73    O74       0.27968      .   S
    Zr22   O74       0.83903      .   S
    N75    O76       0.70610      .   S
    Zr8    O76       1.52540      .   S
    N75    O77       0.87111      .   S
    Zr1    O77       2.03907      .   S
    N78    O79       0.70612      .   S
    Zr11   O79       1.52538      .   S
    N78    O80       0.87113      .   S
    Zr2    O80       2.03922      .   S
    N81    O82       0.70612      .   S
    Zr19   O82       1.52539      .   S
    N81    O83       0.87114      .   S
    Zr1    O83       2.03925  1_455   S
    N84    O85       0.70612      .   S
    Zr21   O85       1.52538      .   S
    N84    O86       0.87136      .   S
    Zr5    O86       2.03921      .   S
    N87    O88       0.27965      .   S
    Zr23   O88       0.83896      .   S
    N89    O90       0.87136      .   S
    Zr7    O90       2.03921      .   S
    N89    O91       0.70614      .   S
    Zr23   O91       1.52545      .   S
    N92    O93       0.70610      .   S
    Zr22   O93       1.52534      .   S
    N92    O94       0.87137      .   S
    Zr6    O94       2.03924      .   S
    N95    O96       0.87114      .   S
    Zr0    O96       2.03926  1_465   S
    N95    O97       0.70612      .   S
    Zr18   O97       1.52538      .   S
    N98    O99       0.70611      .   S
    Zr9    O99       1.52537      .   S
    N98    O100      0.87113      .   S
    Zr0    O100      2.03922      .   S
    N101   O102      0.87111      .   S
    Zr2    O102      2.03916  1_565   S
    N101   O103      0.70612      .   S
    Zr16   O103      1.52537      .   S
    N104   O105      0.87111      .   S
    Zr3    O105      2.03916      .   S
    N104   O106      0.70612      .   S
    Zr17   O106      1.52538      .   S
    N107   O108      0.70609      .   S
    Zr12   O108      1.52531      .   S
    N107   O109      0.87138      .   S
    Zr4    O109      2.03926      .   S
    N110   O111      0.70610      .   S
    Zr15   O111      1.52534      .   S
    N110   O112      0.87138      .   S
    Zr7    O112      2.03925      .   S
    N113   O114      0.70612      .   S
    Zr10   O114      1.52538      .   S
    N113   O115      0.87111      .   S
    Zr3    O115      2.03915      .   S
