# CIF file generated by openbabel 2.4.90, see http://openbabel.sf.net
data_I
_chemical_name_common 'VESTA_phase_1'
_cell_length_a 16.152
_cell_length_b 16.386
_cell_length_c 17.297
_cell_angle_alpha 89.875
_cell_angle_beta 103.749
_cell_angle_gamma 90.013
_space_group_name_H-M_alt 'P 1'
_space_group_name_Hall 'P 1'
loop_
    _symmetry_equiv_pos_as_xyz
    x,y,z
loop_
    _atom_site_label
    _atom_site_type_symbol
    _atom_site_fract_x
    _atom_site_fract_y
    _atom_site_fract_z
    _atom_site_occupancy
    Zn0     Zn   0.63525   0.04147   0.55990   1.000
    Zn1     Zn   0.94858   0.98950   0.17434   1.000
    Zn2     Zn   0.86458   0.54171   0.43691   1.000
    Zn3     Zn   0.55096   0.48970   0.82359   1.000
    Zn4     Zn   0.36481   0.95850   0.43964   1.000
    Zn5     Zn   0.04937   0.01042   0.82330   1.000
    Zn6     Zn   0.13513   0.45837   0.55988   1.000
    Zn7     Zn   0.44806   0.51019   0.17398   1.000
    Zn8     Zn   0.00001   0.00028   0.99967   1.000
    Zn9     Zn   0.49996   0.50005   0.99957   1.000
    H10     H    0.80448   0.96886   0.64195   1.000
    H11     H    0.85456   0.83649   0.70742   1.000
    H12     H    0.74538   0.72861   0.71736   1.000
    H13     H    0.55035   0.90406   0.61242   1.000
    H14     H    0.46527   0.70267   0.64773   1.000
    H15     H    0.47110   0.79977   0.60195   1.000
    H16     H    0.41587   0.91251   0.66607   1.000
    H17     H    0.38239   0.97504   0.78459   1.000
    H18     H    0.48878   0.76521   0.92478   1.000
    H19     H    0.52403   0.70430   0.80654   1.000
    H20     H    0.30243   0.98027   0.86995   1.000
    H21     H    0.27032   0.04394   0.98662   1.000
    H22     H    0.48047   0.91573   0.13854   1.000
    H23     H    0.51644   0.85540   0.02069   1.000
    H24     H    0.33168   0.08644   0.13100   1.000
    H25     H    0.40735   0.00000   0.19464   1.000
    H26     H    0.18913   0.05444   0.09715   1.000
    H27     H    0.09800   0.87645   0.24138   1.000
    H28     H    0.24989   0.83272   0.29416   1.000
    H29     H    0.36644   0.90425   0.24806   1.000
    H30     H    0.91435   0.15617   0.56437   1.000
    H31     H    0.00000   0.28124   0.57923   1.000
    H32     H    0.78319   0.43290   0.54837   1.000
    H33     H    0.69246   0.30769   0.53842   1.000
    H34     H    0.66771   0.30269   0.10155   1.000
    H35     H    0.72017   0.29319   0.86971   1.000
    H36     H    0.82752   0.18216   0.91700   1.000
    H37     H    0.77660   0.19355   0.14897   1.000
    H38     H    0.90001   0.91380   0.40061   1.000
    H39     H    0.09694   0.09491   0.45200   1.000
    H40     H    0.69513   0.46921   0.35593   1.000
    H41     H    0.64490   0.33663   0.29174   1.000
    H42     H    0.75395   0.22841   0.28260   1.000
    H43     H    0.94921   0.40404   0.38540   1.000
    H44     H    0.03412   0.20220   0.35183   1.000
    H45     H    0.02840   0.29921   0.39740   1.000
    H46     H    0.08379   0.41198   0.33306   1.000
    H47     H    0.11731   0.47467   0.21443   1.000
    H48     H    0.01052   0.26528   0.07468   1.000
    H49     H    0.97517   0.20423   0.19303   1.000
    H50     H    0.19681   0.48054   0.12894   1.000
    H51     H    0.22913   0.54407   0.00000   1.000
    H52     H    0.01978   0.41505   0.86049   1.000
    H53     H    0.98353   0.35499   0.97853   1.000
    H54     H    0.16819   0.58599   0.86645   1.000
    H55     H    0.09263   0.52179   0.80395   1.000
    H56     H    0.31084   0.55404   0.90141   1.000
    H57     H    0.40220   0.37655   0.75758   1.000
    H58     H    0.25042   0.33260   0.70502   1.000
    H59     H    0.13375   0.40370   0.75110   1.000
    H60     H    0.58504   0.65589   0.43511   1.000
    H61     H    0.49266   0.78089   0.42026   1.000
    H62     H    0.71560   0.93266   0.44779   1.000
    H63     H    0.80630   0.80755   0.45720   1.000
    H64     H    0.83183   0.80286   0.89707   1.000
    H65     H    0.77970   0.79276   0.12907   1.000
    H66     H    0.67236   0.68188   0.08204   1.000
    H67     H    0.72307   0.69369   0.85004   1.000
    H68     H    0.60019   0.41504   0.59803   1.000
    H69     H    0.40226   0.59530   0.54588   1.000
    H70     H    0.19535   0.03069   0.35735   1.000
    H71     H    0.14499   0.16277   0.29146   1.000
    H72     H    0.25391   0.27100   0.28160   1.000
    H73     H    0.44934   0.09620   0.38729   1.000
    H74     H    0.53402   0.29765   0.35161   1.000
    H75     H    0.52846   0.20072   0.39775   1.000
    H76     H    0.58391   0.08793   0.33390   1.000
    H77     H    0.61746   0.02511   0.21560   1.000
    H78     H    0.50999   0.23413   0.07469   1.000
    H79     H    0.47467   0.29533   0.19270   1.000
    H80     H    0.69712   0.01961   0.13010   1.000
    H81     H    0.72946   0.95587   0.00000   1.000
    H82     H    0.51918   0.08374   0.86139   1.000
    H83     H    0.48296   0.14403   0.97910   1.000
    H84     H    0.66898   0.91357   0.86846   1.000
    H85     H    0.59231   0.97672   0.80559   1.000
    H86     H    0.81114   0.94713   0.90249   1.000
    H87     H    0.89940   0.12532   0.75659   1.000
    H88     H    0.74698   0.16752   0.70424   1.000
    H89     H    0.63158   0.09518   0.75137   1.000
    H90     H    0.08513   0.84381   0.43420   1.000
    H91     H    0.99287   0.71871   0.41850   1.000
    H92     H    0.21631   0.56717   0.44872   1.000
    H93     H    0.30700   0.69244   0.45924   1.000
    H94     H    0.33038   0.69710   0.89653   1.000
    H95     H    0.28002   0.70762   0.12917   1.000
    H96     H    0.17248   0.81848   0.08212   1.000
    H97     H    0.22105   0.80591   0.84935   1.000
    H98     H    0.09938   0.08550   0.59767   1.000
    H99     H    0.90246   0.90433   0.54627   1.000
    H100    H    0.30441   0.53049   0.64128   1.000
    H101    H    0.35492   0.66234   0.70702   1.000
    H102    H    0.24608   0.77037   0.71725   1.000
    H103    H    0.05049   0.59586   0.61217   1.000
    H104    H    0.96600   0.79737   0.64761   1.000
    H105    H    0.97161   0.70052   0.60167   1.000
    H106    H    0.91592   0.58740   0.66583   1.000
    H107    H    0.88228   0.52456   0.78439   1.000
    H108    H    0.98915   0.73373   0.92441   1.000
    H109    H    0.02457   0.79495   0.80619   1.000
    H110    H    0.80258   0.51888   0.87013   1.000
    H111    H    0.77022   0.45561   0.98724   1.000
    H112    H    0.98017   0.58407   0.13845   1.000
    H113    H    0.00000   0.64387   0.02030   1.000
    H114    H    0.83129   0.41373   0.13289   1.000
    H115    H    0.90688   0.47804   0.19523   1.000
    H116    H    0.68876   0.44551   0.09795   1.000
    H117    H    0.59727   0.62432   0.24041   1.000
    H118    H    0.74906   0.66852   0.29263   1.000
    H119    H    0.86576   0.59689   0.24709   1.000
    H120    H    0.41493   0.34404   0.56277   1.000
    H121    H    0.50733   0.21903   0.57846   1.000
    H122    H    0.28433   0.06735   0.55112   1.000
    H123    H    0.19358   0.19251   0.54075   1.000
    H124    H    0.16717   0.19755   0.10037   1.000
    H125    H    0.22205   0.20524   0.86942   1.000
    H126    H    0.32897   0.31656   0.91635   1.000
    H127    H    0.27592   0.30670   0.14752   1.000
    H128    H    0.39867   0.58486   0.40000   1.000
    H129    H    0.59689   0.40494   0.45220   1.000
    C130    C    0.75959   0.92247   0.65093   1.000
    C131    C    0.78656   0.84745   0.68614   1.000
    C132    C    0.72660   0.78884   0.69242   1.000
    C133    C    0.63938   0.80701   0.66527   1.000
    C134    C    0.61638   0.88466   0.63346   1.000
    C135    C    0.49353   0.76389   0.65675   1.000
    C136    C    0.47294   0.80422   0.72813   1.000
    C137    C    0.43230   0.88025   0.72296   1.000
    C138    C    0.41294   0.91527   0.79009   1.000
    C139    C    0.43346   0.87568   0.86453   1.000
    C140    C    0.47418   0.79910   0.86880   1.000
    C141    C    0.49349   0.76404   0.80203   1.000
    C142    C    0.41244   0.91265   0.93560   1.000
    C143    C    0.34323   0.96662   0.92835   1.000
    C144    C    0.32391   0.00000   0.99501   1.000
    C145    C    0.37219   0.98369   0.07168   1.000
    C146    C    0.44084   0.92961   0.07954   1.000
    C147    C    0.46089   0.89505   0.01276   1.000
    C148    C    0.35180   0.00000   0.14384   1.000
    C149    C    0.19986   0.00000   0.14007   1.000
    C150    C    0.13008   0.96781   0.16246   1.000
    C151    C    0.14955   0.90527   0.22046   1.000
    C152    C    0.23376   0.88123   0.25006   1.000
    C153    C    0.29960   0.91915   0.22488   1.000
    C154    C    0.74470   0.14989   0.54913   1.000
    C155    C    0.79810   0.22479   0.55119   1.000
    C156    C    0.88665   0.21700   0.56185   1.000
    C157    C    0.93765   0.28632   0.56993   1.000
    C158    C    0.90077   0.36445   0.56550   1.000
    C159    C    0.95776   0.43749   0.57408   1.000
    C160    C    0.81196   0.37234   0.55266   1.000
    C161    C    0.76122   0.30280   0.54649   1.000
    C162    C    0.62325   0.37134   0.95317   1.000
    C163    C    0.70393   0.27718   0.06165   1.000
    C164    C    0.68755   0.30489   0.98260   1.000
    C165    C    0.73301   0.27081   0.93074   1.000
    C166    C    0.79252   0.20945   0.95702   1.000
    C167    C    0.80817   0.18107   0.03572   1.000
    C168    C    0.76405   0.21608   0.08805   1.000
    C169    C    0.86933   0.11176   0.06180   1.000
    C170    C    0.99673   0.01233   0.33103   1.000
    C171    C    0.99815   0.00519   0.41770   1.000
    C172    C    0.94349   0.95101   0.44437   1.000
    C173    C    0.05435   0.05363   0.47334   1.000
    C174    C    0.73999   0.42272   0.34719   1.000
    C175    C    0.71293   0.34754   0.31276   1.000
    C176    C    0.77282   0.28875   0.30695   1.000
    C177    C    0.86007   0.30685   0.33380   1.000
    C178    C    0.88317   0.38469   0.36473   1.000
    C179    C    0.00588   0.26346   0.34273   1.000
    C180    C    0.02645   0.30392   0.27123   1.000
    C181    C    0.06724   0.37985   0.27624   1.000
    C182    C    0.08665   0.41497   0.20903   1.000
    C183    C    0.06604   0.37557   0.13467   1.000
    C184    C    0.02518   0.29907   0.13051   1.000
    C185    C    0.00581   0.26392   0.19740   1.000
    C186    C    0.08715   0.41258   0.06349   1.000
    C187    C    0.15622   0.46670   0.07050   1.000
    C188    C    0.17569   0.50183   0.00000   1.000
    C189    C    0.12773   0.48334   0.92711   1.000
    C190    C    0.05919   0.42915   0.91945   1.000
    C191    C    0.03897   0.39475   0.98636   1.000
    C192    C    0.14817   0.52231   0.85470   1.000
    C193    C    0.30013   0.50455   0.85861   1.000
    C194    C    0.37001   0.46769   0.83632   1.000
    C195    C    0.35063   0.40523   0.77847   1.000
    C196    C    0.26647   0.38105   0.74900   1.000
    C197    C    0.20055   0.41875   0.77412   1.000
    C198    C    0.75431   0.64963   0.44797   1.000
    C199    C    0.70097   0.72455   0.44622   1.000
    C200    C    0.61258   0.71674   0.43680   1.000
    C201    C    0.56150   0.78603   0.42875   1.000
    C202    C    0.59817   0.86420   0.43220   1.000
    C203    C    0.54106   0.93720   0.42356   1.000
    C204    C    0.68689   0.87211   0.44411   1.000
    C205    C    0.73766   0.80260   0.45003   1.000
    C206    C    0.87656   0.87118   0.04530   1.000
    C207    C    0.79574   0.77719   0.93711   1.000
    C208    C    0.81224   0.80476   0.01609   1.000
    C209    C    0.76684   0.77054   0.06808   1.000
    C210    C    0.70731   0.70923   0.04198   1.000
    C211    C    0.69159   0.68094   0.96336   1.000
    C212    C    0.73565   0.71609   0.91091   1.000
    C213    C    0.63031   0.61167   0.93747   1.000
    C214    C    0.50340   0.51307   0.66729   1.000
    C215    C    0.50151   0.50598   0.58052   1.000
    C216    C    0.55626   0.45188   0.55410   1.000
    C217    C    0.44483   0.55399   0.52471   1.000
    C218    C    0.24014   0.07718   0.34837   1.000
    C219    C    0.21301   0.15208   0.31297   1.000
    C220    C    0.27283   0.21086   0.30678   1.000
    C221    C    0.36008   0.19298   0.33424   1.000
    C222    C    0.38326   0.11539   0.36613   1.000
    C223    C    0.50582   0.23639   0.34285   1.000
    C224    C    0.52634   0.19585   0.27153   1.000
    C225    C    0.56728   0.11996   0.27694   1.000
    C226    C    0.58668   0.08478   0.20990   1.000
    C227    C    0.56591   0.12407   0.13531   1.000
    C228    C    0.52484   0.20049   0.13074   1.000
    C229    C    0.50548   0.23570   0.19747   1.000
    C230    C    0.58703   0.08700   0.06432   1.000
    C231    C    0.65633   0.03313   0.07167   1.000
    C232    C    0.67579   0.99787   0.00000   1.000
    C233    C    0.62754   0.01598   0.92835   1.000
    C234    C    0.55878   0.06994   0.92041   1.000
    C235    C    0.53860   0.10448   0.98710   1.000
    C236    C    0.64805   0.97696   0.85621   1.000
    C237    C    0.79959   0.99647   0.85932   1.000
    C238    C    0.86878   0.03413   0.83646   1.000
    C239    C    0.84835   0.09617   0.77800   1.000
    C240    C    0.76383   0.11934   0.74861   1.000
    C241    C    0.69861   0.08095   0.77436   1.000
    C242    C    0.25479   0.85019   0.44948   1.000
    C243    C    0.20135   0.77525   0.44694   1.000
    C244    C    0.11281   0.78300   0.43630   1.000
    C245    C    0.06181   0.71366   0.42782   1.000
    C246    C    0.09870   0.63556   0.43186   1.000
    C247    C    0.04170   0.56253   0.42286   1.000
    C248    C    0.18751   0.62770   0.44471   1.000
    C249    C    0.23824   0.69727   0.45122   1.000
    C250    C    0.37609   0.62896   0.04517   1.000
    C251    C    0.29454   0.72277   0.93669   1.000
    C252    C    0.31164   0.69536   0.01586   1.000
    C253    C    0.26669   0.72971   0.06800   1.000
    C254    C    0.20702   0.79099   0.04190   1.000
    C255    C    0.19058   0.81901   0.96303   1.000
    C256    C    0.23419   0.78372   0.91042   1.000
    C257    C    0.12902   0.88814   0.93705   1.000
    C258    C    0.00269   0.98750   0.66730   1.000
    C259    C    0.00121   0.99414   0.58055   1.000
    C260    C    0.05591   0.04827   0.55390   1.000
    C261    C    0.94507   0.94563   0.52499   1.000
    C262    C    0.25968   0.57689   0.65046   1.000
    C263    C    0.28688   0.65166   0.68578   1.000
    C264    C    0.22709   0.71033   0.69220   1.000
    C265    C    0.13981   0.69250   0.66500   1.000
    C266    C    0.11657   0.61504   0.63319   1.000
    C267    C    0.99408   0.73603   0.65654   1.000
    C268    C    0.97328   0.69537   0.72784   1.000
    C269    C    0.93246   0.61944   0.72270   1.000
    C270    C    0.91299   0.58424   0.78986   1.000
    C271    C    0.93359   0.62356   0.86427   1.000
    C272    C    0.97447   0.70005   0.86853   1.000
    C273    C    0.99388   0.73528   0.80170   1.000
    C274    C    0.91250   0.58656   0.93546   1.000
    C275    C    0.84330   0.53263   0.92848   1.000
    C276    C    0.82382   0.49764   0.99534   1.000
    C277    C    0.87195   0.51607   0.07193   1.000
    C278    C    0.94065   0.57003   0.07951   1.000
    C279    C    0.96086   0.60430   0.01255   1.000
    C280    C    0.85140   0.47741   0.14437   1.000
    C281    C    0.69945   0.49533   0.14041   1.000
    C282    C    0.62959   0.53252   0.16240   1.000
    C283    C    0.64889   0.59539   0.21978   1.000
    C284    C    0.73303   0.61972   0.24906   1.000
    C285    C    0.79896   0.58171   0.22421   1.000
    C286    C    0.24554   0.35042   0.54919   1.000
    C287    C    0.29895   0.27545   0.55157   1.000
    C288    C    0.38738   0.28322   0.56120   1.000
    C289    C    0.43847   0.21392   0.56980   1.000
    C290    C    0.40178   0.13578   0.56663   1.000
    C291    C    0.45890   0.06280   0.57561   1.000
    C292    C    0.31304   0.12789   0.55456   1.000
    C293    C    0.26225   0.19742   0.54810   1.000
    C294    C    0.12394   0.12793   0.95287   1.000
    C295    C    0.20388   0.22270   0.06061   1.000
    C296    C    0.18823   0.19442   0.98192   1.000
    C297    C    0.23429   0.22803   0.93019   1.000
    C298    C    0.29361   0.28954   0.95625   1.000
    C299    C    0.30857   0.31844   0.03463   1.000
    C300    C    0.26389   0.28382   0.08685   1.000
    C301    C    0.36958   0.38783   0.06060   1.000
    C302    C    0.49562   0.48648   0.33087   1.000
    C303    C    0.49736   0.49394   0.41761   1.000
    C304    C    0.44264   0.54807   0.44403   1.000
    C305    C    0.55420   0.44610   0.47346   1.000
    N306    N    0.67607   0.94005   0.62541   1.000
    N307    N    0.28093   0.98076   0.17089   1.000
    N308    N    0.82354   0.44028   0.37230   1.000
    N309    N    0.21911   0.48032   0.82792   1.000
    N310    N    0.32370   0.05984   0.37409   1.000
    N311    N    0.71820   0.01968   0.82866   1.000
    N312    N    0.17610   0.55958   0.62505   1.000
    N313    N    0.78045   0.51970   0.17091   1.000
    O314    O    0.77754   0.07973   0.55321   1.000
    O315    O    0.66446   0.15973   0.54721   1.000
    O316    O    0.03547   0.42725   0.61041   1.000
    O317    O    0.92805   0.50710   0.54644   1.000
    O318    O    0.90273   0.08012   0.00980   1.000
    O319    O    0.88206   0.08943   0.13485   1.000
    O320    O    0.61837   0.39621   0.88217   1.000
    O321    O    0.58098   0.39799   0.00106   1.000
    O322    O    0.03796   0.06726   0.30627   1.000
    O323    O    0.95053   0.95871   0.28420   1.000
    O324    O    0.05236   0.99269   0.12890   1.000
    O325    O    0.58432   0.74607   0.67030   1.000
    O326    O    0.72218   0.57944   0.44675   1.000
    O327    O    0.83378   0.65969   0.44671   1.000
    O328    O    0.46330   0.92704   0.38742   1.000
    O329    O    0.57068   0.00680   0.45094   1.000
    O330    O    0.59684   0.58029   0.98978   1.000
    O331    O    0.61760   0.58931   0.86460   1.000
    O332    O    0.88159   0.89589   0.11630   1.000
    O333    O    0.91873   0.89800   0.99729   1.000
    O334    O    0.46268   0.56807   0.69244   1.000
    O335    O    0.54950   0.45907   0.71390   1.000
    O336    O    0.44765   0.49268   0.86970   1.000
    O337    O    0.91507   0.24573   0.32941   1.000
    O338    O    0.22230   0.92037   0.44694   1.000
    O339    O    0.33475   0.84029   0.45022   1.000
    O340    O    0.96408   0.57278   0.38620   1.000
    O341    O    0.07121   0.49287   0.45049   1.000
    O342    O    0.09688   0.92026   0.98981   1.000
    O343    O    0.11471   0.90968   0.86378   1.000
    O344    O    0.38131   0.60419   0.11620   1.000
    O345    O    0.41814   0.60217   0.99715   1.000
    O346    O    0.96179   0.93270   0.69274   1.000
    O347    O    0.04872   0.04151   0.71367   1.000
    O348    O    0.94684   0.01028   0.86995   1.000
    O349    O    0.41502   0.25411   0.32944   1.000
    O350    O    0.27767   0.42059   0.55010   1.000
    O351    O    0.16599   0.34041   0.55010   1.000
    O352    O    0.53664   0.07304   0.61175   1.000
    O353    O    0.42934   0.99307   0.54849   1.000
    O354    O    0.40309   0.41946   0.00844   1.000
    O355    O    0.38207   0.41018   0.13344   1.000
    O356    O    0.12109   0.10089   0.88307   1.000
    O357    O    0.07972   0.10342   0.40000   1.000
    O358    O    0.53825   0.43262   0.30650   1.000
    O359    O    0.44777   0.53887   0.28360   1.000
    O360    O    0.55197   0.50740   0.12907   1.000
    O361    O    0.08497   0.75357   0.67020   1.000
loop_
    _geom_bond_atom_site_label_1
    _geom_bond_atom_site_label_2
    _geom_bond_distance
    _geom_bond_site_symmetry_2
    _ccdc_geom_bond_type
    H81    C232      1.10686      .   S
    H51    C188      1.10622      .   S
    C188   C187      1.44794      .   S
    C188   C189      1.34864  1_554   S
    C232   C231      1.46896  1_565   S
    C232   C233      1.33069  1_564   S
    O321   C162      1.27022  1_554   S
    O321   Zn9       2.12018  1_554   S
    O354   C301      1.26702      .   S
    O354   Zn9       2.08042  1_554   S
    O318   C169      1.26559      .   S
    O318   Zn8       2.08421  1_654   S
    C279   H113      0.89333  1_655   S
    C279   C278      1.39285      .   S
    C279   C274      1.40682  1_554   S
    C147   H23       1.08962      .   S
    C147   C146      1.39304      .   S
    C147   C142      1.40672  1_554   S
    C252   C250      1.50716      .   S
    C252   C253      1.40397      .   S
    C252   C251      1.40385  1_554   S
    C208   C206      1.50711      .   S
    C208   C209      1.40426      .   S
    C208   C207      1.40393  1_554   S
    C299   C301      1.50235      .   S
    C299   C300      1.40204      .   S
    C299   C298      1.40275  1_554   S
    C167   C169      1.50183      .   S
    C167   C168      1.40196      .   S
    C167   C166      1.40250  1_554   S
    C254   C253      1.39013      .   S
    C254   H96       1.08820      .   S
    C254   C255      1.40266  1_554   S
    C210   C209      1.39024      .   S
    C210   H66       1.08816      .   S
    C210   C211      1.40258  1_554   S
    C250   O344      1.27671      .   S
    C250   O345      1.27033  1_554   S
    C206   O332      1.27809      .   S
    C206   O333      1.27040  1_554   S
    C301   O355      1.28193      .   S
    C295   C300      1.39319      .   S
    C295   H124      1.08944      .   S
    C295   C296      1.40372  1_554   S
    C163   C168      1.39323      .   S
    C163   H34       1.08940      .   S
    C163   C164      1.40399  1_554   S
    C169   O319      1.28345      .   S
    C186   C187      1.40760      .   S
    C186   C183      1.48195      .   S
    C186   C191      1.40675  1_554   S
    C230   C231      1.40739      .   S
    C230   C227      1.48175      .   S
    C230   C235      1.40706  1_554   S
    C253   H95       1.08945      .   S
    C209   H65       1.08909      .   S
    C187   H50       1.09041      .   S
    C231   H80       1.08954      .   S
    C145   C146      1.40060      .   S
    C145   C148      1.39092  1_565   S
    C145   C144      1.39472  1_564   S
    C277   C278      1.40053      .   S
    C277   C280      1.50854      .   S
    C277   C276      1.40095  1_554   S
    H48    C184      1.09025      .   S
    H78    C228      1.09022      .   S
    C278   H112      1.09144      .   S
    C146   H22       1.09151      .   S
    C300   H127      1.08825      .   S
    C168   H37       1.08838      .   S
    H26    C149      1.14579      .   S
    H116   C281      1.08524      .   S
    O344   Zn7       2.00390      .   S
    O332   Zn1       2.00535      .   S
    O324   C150      1.31594      .   S
    O324   Zn1       2.01402  1_455   S
    O360   C282      1.31553      .   S
    O360   Zn7       2.01058      .   S
    C184   C183      1.41050      .   S
    C184   C185      1.39187      .   S
    C228   C227      1.41040      .   S
    C228   C229      1.39199      .   S
    H24    C148      1.45790      .   S
    H114   C280      1.09719      .   S
    O355   Zn7       1.99061      .   S
    C183   C182      1.40786      .   S
    O319   Zn1       1.98727  1_545   S
    C227   C226      1.40797      .   S
    C149   C150      1.38011  1_545   S
    C149   N307      1.32889  1_545   S
    C281   C282      1.41240      .   S
    C281   N313      1.34972      .   S
    C148   N307      1.37204  1_545   S
    C148   H25       1.09652      .   S
    C280   N313      1.50200      .   S
    C280   H115      1.09652      .   S
    C282   C283      1.41446      .   S
    C150   C151      1.41459      .   S
    N307   C153      1.35808      .   S
    N313   C285      1.35828      .   S
    Zn7    O359      1.95559      .   S
    Zn1    O323      1.95806      .   S
    H79    C229      1.09059      .   S
    H49    C185      1.09075  1_655   S
    C185   C180      1.40451      .   S
    C229   C224      1.40436      .   S
    C182   H47       1.09045      .   S
    C182   C181      1.39681      .   S
    C226   H77       1.09050      .   S
    C226   C225      1.39680      .   S
    C283   H117      1.09063      .   S
    C283   C284      1.39143      .   S
    C151   H27       1.09065      .   S
    C151   C152      1.39127      .   S
    C285   H119      1.08617      .   S
    C285   C284      1.38763      .   S
    C153   H29       1.08617      .   S
    C153   C152      1.38757      .   S
    C284   H118      1.08826      .   S
    C152   H28       1.08841      .   S
    C180   C181      1.40100      .   S
    C180   C179      1.50700      .   S
    C224   C225      1.40099      .   S
    C224   C223      1.50697      .   S
    C181   H46       1.09170      .   S
    C225   H76       1.09105      .   S
    H72    C220      1.09049      .   S
    H42    C176      1.09025      .   S
    O359   C302      1.30385      .   S
    O323   C170      1.30398  1_565   S
    H71    C219      1.08705      .   S
    H41    C175      1.08697      .   S
    O322   C170      1.25330  1_455   S
    O358   C302      1.25321      .   S
    C220   C219      1.38609      .   S
    C220   C221      1.40667      .   S
    C176   C175      1.38602      .   S
    C176   C177      1.40678      .   S
    C175   C174      1.39378      .   S
    C219   C218      1.39376      .   S
    O337   C177      1.35317      .   S
    O337   C179      1.45881  1_655   S
    O349   C221      1.35343      .   S
    O349   C223      1.45849      .   S
    C302   C303      1.49918      .   S
    C170   C171      1.49818      .   S
    C177   C178      1.39995      .   S
    C221   C222      1.39997      .   S
    C179   H44       1.09809      .   S
    C179   H45       1.09932      .   S
    C223   H74       1.09813      .   S
    C223   H75       1.09983      .   S
    C174   H40       1.08660      .   S
    C174   N308      1.34697      .   S
    C218   H70       1.08655      .   S
    C218   N310      1.34703      .   S
    C178   N308      1.35479      .   S
    C178   H43       1.08880      .   S
    C222   N310      1.35470      .   S
    C222   H73       1.08896      .   S
    N308   Zn2       2.02636      .   S
    N310   Zn4       2.02929  1_545   S
    O340   C247      1.27422  1_655   S
    O340   Zn2       2.06861      .   S
    O328   C203      1.27394      .   S
    O328   Zn4       2.07310      .   S
    H128   C304      1.09037      .   S
    H38    C172      1.08953      .   S
    C303   C304      1.40389      .   S
    C303   C305      1.40218      .   S
    C171   C172      1.40416  1_545   S
    C171   C173      1.40285  1_655   S
    H91    C245      1.08965  1_655   S
    H61    C201      1.08967      .   S
    C247   C246      1.49546      .   S
    C247   O341      1.28380      .   S
    C203   C202      1.49607      .   S
    C203   O329      1.28393  1_565   S
    C245   C246      1.40638      .   S
    C245   C244      1.39059      .   S
    C201   C202      1.40646      .   S
    C201   C200      1.39075      .   S
    C246   C248      1.40437      .   S
    C202   C204      1.40449      .   S
    H90    C244      1.08927      .   S
    H60    C200      1.08927      .   S
    C244   C243      1.40360      .   S
    C200   C199      1.40381      .   S
    Zn2    O327      2.01391      .   S
    Zn2    O317      2.00855      .   S
    Zn4    O339      2.01536      .   S
    Zn4    O353      2.00588      .   S
    C304   C217      1.39116      .   S
    C204   H62       1.09064      .   S
    C204   C205      1.39289      .   S
    C172   C261      1.39126      .   S
    C248   H92       1.09065      .   S
    C248   C249      1.39273      .   S
    C199   C198      1.49616      .   S
    C199   C205      1.40451      .   S
    O327   C198      1.29933      .   S
    O326   C198      1.25985      .   S
    C243   C242      1.49547      .   S
    C243   C249      1.40440      .   S
    O338   C242      1.26053      .   S
    C242   O339      1.29878      .   S
    C205   H63       1.08889      .   S
    O341   Zn6       2.00815      .   S
    O329   Zn0       2.00814      .   S
    C249   H93       1.08884      .   S
    H39    O357      0.88676      .   S
    H129   C305      1.08958      .   S
    C173   C260      1.39024      .   S
    C305   C216      1.39072      .   S
    C217   H69       1.08896      .   S
    C217   C215      1.40215      .   S
    C261   H99       1.08906      .   S
    C261   C259      1.40236  1_655   S
    H33    C161      1.08885      .   S
    H123   C293      1.08891      .   S
    O317   C159      1.28393      .   S
    C161   C155      1.40441      .   S
    C161   C160      1.39281      .   S
    O315   C154      1.29857      .   S
    O315   Zn0       2.01812      .   S
    C293   C287      1.40455      .   S
    C293   C292      1.39282      .   S
    H32    C160      1.09064      .   S
    O353   C291      1.28417  1_565   S
    C154   C155      1.49554      .   S
    C154   O314      1.26107      .   S
    C286   O350      1.25999      .   S
    C286   O351      1.29907      .   S
    C286   C287      1.49610      .   S
    O351   Zn6       2.01364      .   S
    H122   C292      1.09062      .   S
    C155   C156      1.40381      .   S
    C287   C288      1.40389      .   S
    C160   C158      1.40435      .   S
    C260   C259      1.40400  1_545   S
    C260   H98       1.08968      .   S
    C216   C215      1.40388      .   S
    C216   H68       1.08949      .   S
    C292   C290      1.40451      .   S
    Zn6    O316      2.06910      .   S
    Zn6    N312      2.02784      .   S
    Zn0    O352      2.07131      .   S
    Zn0    N306      2.02925  1_545   S
    C288   H120      1.08912      .   S
    C288   C289      1.39066      .   S
    C156   H30       1.08919      .   S
    C156   C157      1.39054      .   S
    C158   C157      1.40637      .   S
    C158   C159      1.49573      .   S
    C290   C289      1.40646      .   S
    C290   C291      1.49570      .   S
    C289   H121      1.08961      .   S
    C157   H31       0.98493  1_655   S
    C159   O316      1.27408  1_655   S
    C291   O352      1.27386      .   S
    C215   C214      1.49868      .   S
    C259   C258      1.49873      .   S
    H105   C267      1.09983      .   S
    H15    C135      1.09986      .   S
    H103   C266      1.08900      .   S
    H13    C134      1.08897      .   S
    N312   C266      1.35490      .   S
    N312   C262      1.34697      .   S
    N306   C134      1.35478      .   S
    N306   C130      1.34697      .   S
    C266   C265      1.39981      .   S
    C134   C133      1.39997      .   S
    H100   C262      1.08661      .   S
    H10    C130      1.08655      .   S
    H104   C267      1.09816      .   S
    H14    C135      1.09809      .   S
    C262   C263      1.39375      .   S
    C130   C131      1.39382      .   S
    C267   O361      1.45902  1_655   S
    C267   C268      1.50697      .   S
    C135   O325      1.45847      .   S
    C135   C136      1.50686      .   S
    C265   O361      1.35372      .   S
    C265   C264      1.40690      .   S
    C133   O325      1.35331      .   S
    C133   C132      1.40675      .   S
    H106   C269      1.09176      .   S
    H16    C137      1.09176      .   S
    C214   O334      1.25376      .   S
    C214   O335      1.30355      .   S
    C258   O346      1.25404  1_455   S
    C258   O347      1.30332  1_565   S
    C263   C264      1.38597      .   S
    C263   H101      1.08698      .   S
    C131   C132      1.38604      .   S
    C131   H11       1.08705      .   S
    C264   H102      1.09012      .   S
    C132   H12       1.09011      .   S
    H88    C240      1.08838      .   S
    H58    C196      1.08848      .   S
    O347   Zn5       1.96005      .   S
    O335   Zn3       1.95834      .   S
    C269   C268      1.40107      .   S
    C269   C270      1.39705      .   S
    C137   C136      1.40099      .   S
    C137   C138      1.39677      .   S
    C268   C273      1.40425      .   S
    C136   C141      1.40438      .   S
    C240   C241      1.38756      .   S
    C240   C239      1.39138      .   S
    C196   C197      1.38757      .   S
    C196   C195      1.39140      .   S
    H59    C197      1.08618      .   S
    H89    C241      1.08609      .   S
    H87    C239      1.09055      .   S
    H57    C195      1.09065      .   S
    C197   N309      1.35829      .   S
    C241   N311      1.35827      .   S
    C239   C238      1.41486      .   S
    C195   C194      1.41492      .   S
    H107   C270      1.09049      .   S
    H17    C138      1.09050      .   S
    C270   C271      1.40794      .   S
    C138   C139      1.40793      .   S
    C273   H109      1.09073  1_655   S
    C273   C272      1.39183      .   S
    C141   H19       1.09061      .   S
    C141   C140      1.39113      .   S
    H55    C192      1.09596      .   S
    H85    C236      1.09657      .   S
    Zn5    O343      1.99339  1_545   S
    Zn5    O348      2.00715  1_455   S
    Zn5    O356      2.01119      .   S
    Zn3    O331      1.99184      .   S
    Zn3    O336      2.01391      .   S
    Zn3    O320      2.00709      .   S
    N309   C192      1.50167      .   S
    N309   C193      1.34986      .   S
    N311   C236      1.50200  1_545   S
    N311   C237      1.34979  1_545   S
    C194   C193      1.41280      .   S
    C194   O336      1.31543      .   S
    C238   C237      1.41244  1_545   S
    C238   O348      1.31531      .   S
    H97    C256      1.08853      .   S
    H67    C212      1.08834      .   S
    C192   H54       1.09733      .   S
    C192   C189      1.50946      .   S
    C236   H84       1.09706      .   S
    C236   C233      1.50843  1_565   S
    C193   H56       1.08509      .   S
    C237   H86       1.08499      .   S
    H52    C190      1.09132      .   S
    H82    C234      1.09139      .   S
    O343   C257      1.28180      .   S
    C271   C272      1.41035      .   S
    C271   C274      1.48185      .   S
    C139   C140      1.41042      .   S
    C139   C142      1.48164      .   S
    O331   C213      1.28221      .   S
    C272   H108      1.09012      .   S
    C140   H18       1.09119      .   S
    H125   C297      1.08920      .   S
    H35    C165      1.08907      .   S
    H20    C143      1.08968      .   S
    H110   C275      1.08967      .   S
    O320   C162      1.27757      .   S
    O356   C294      1.27753      .   S
    H94    C251      1.08950      .   S
    H64    C207      1.08942      .   S
    C256   C251      1.39362      .   S
    C256   C255      1.40212      .   S
    C212   C207      1.39355      .   S
    C212   C211      1.40213      .   S
    H126   C298      1.08830      .   S
    H36    C166      1.08910      .   S
    C190   C189      1.40066      .   S
    C190   C191      1.39305      .   S
    C234   C233      1.40061      .   S
    C234   C235      1.39248      .   S
    C143   C142      1.40741      .   S
    C143   C144      1.37837  1_565   S
    C275   C274      1.40746      .   S
    C275   C276      1.39108      .   S
    C297   C298      1.39042      .   S
    C297   C296      1.40412      .   S
    C165   C166      1.39011      .   S
    C165   C164      1.40393      .   S
    C257   C255      1.50320      .   S
    C257   O342      1.26752      .   S
    C213   C211      1.50315      .   S
    C213   O330      1.26709      .   S
    C294   C296      1.50721      .   S
    C162   C164      1.50673      .   S
    H53    C191      1.08960  1_655   S
    H83    C235      1.08962      .   S
    H21    C144      1.10855      .   S
    H111   C276      1.08904      .   S
    O330   Zn9       2.08096      .   S
    O342   Zn8       2.07978  1_565   S
    O345   Zn9       2.12663      .   S
    O333   Zn8       2.12313  1_665   S
    O324   Zn8       2.19713  1_564   S
    O336   Zn9       2.20760      .   S
    O348   Zn8       2.20939  1_655   S
    O360   Zn9       2.20098  1_554   S
