# CIF file generated by openbabel 2.4.90, see http://openbabel.sf.net
data_I
_chemical_name_common ''
_cell_length_a 19.009
_cell_length_b 13.056
_cell_length_c 12.882
_cell_angle_alpha 111.49
_cell_angle_beta 105.097
_cell_angle_gamma 98.844
_space_group_name_H-M_alt 'P 1'
_space_group_name_Hall 'P 1'
loop_
    _symmetry_equiv_pos_as_xyz
    x,y,z
loop_
    _atom_site_label
    _atom_site_type_symbol
    _atom_site_fract_x
    _atom_site_fract_y
    _atom_site_fract_z
    _atom_site_occupancy
    H0      H    0.31681   0.35087   0.45326   1.000
    H1      H    0.81681   0.35087   0.45326   1.000
    H2      H    0.21688   0.15039   0.26459   1.000
    H3      H    0.71688   0.15039   0.26459   1.000
    H4      H    0.44241   0.12332   0.32985   1.000
    H5      H    0.94242   0.12332   0.32985   1.000
    H6      H    0.19395   0.94436   0.20764   1.000
    H7      H    0.69396   0.94436   0.20764   1.000
    H8      H    0.14440   0.75631   0.03501   1.000
    H9      H    0.64441   0.75632   0.03501   1.000
    H10     H    0.33970   0.83054   0.93549   1.000
    H11     H    0.83971   0.83054   0.93549   1.000
    H12     H    0.38862   0.01931   0.10706   1.000
    H13     H    0.88863   0.01931   0.10706   1.000
    H14     H    0.08761   0.64950   0.83047   1.000
    H15     H    0.58761   0.64951   0.83040   1.000
    H16     H    0.31176   0.63111   0.84767   1.000
    H17     H    0.81177   0.63112   0.84767   1.000
    H18     H    0.20667   0.44061   0.65471   1.000
    H19     H    0.70668   0.44061   0.65470   1.000
    H20     H    0.02519   0.05581   0.62060   1.000
    H21     H    0.52520   0.05581   0.62063   1.000
    H22     H    0.11638   0.14781   0.72000   1.000
    H23     H    0.61638   0.14781   0.72000   1.000
    H24     H    0.20844   0.24735   0.69004   1.000
    H25     H    0.70845   0.24735   0.69004   1.000
    H26     H    0.10355   0.85119   0.40550   1.000
    H27     H    0.60355   0.85119   0.40549   1.000
    H28     H    0.34402   0.29364   0.70911   1.000
    H29     H    0.84403   0.29364   0.70910   1.000
    H30     H    0.35234   0.66582   0.64052   1.000
    H31     H    0.85234   0.66582   0.64053   1.000
    H32     H    0.43914   0.73807   0.64071   1.000
    H33     H    0.93915   0.73807   0.64071   1.000
    H34     H    0.41211   0.88729   0.68058   1.000
    H35     H    0.91212   0.88729   0.68059   1.000
    H36     H    0.44841   0.09837   0.77088   1.000
    H37     H    0.94842   0.09837   0.77088   1.000
    H38     H    0.01031   0.21121   0.98898   1.000
    H39     H    0.51032   0.21121   0.98898   1.000
    H40     H    0.18319   0.64910   0.54675   1.000
    H41     H    0.68320   0.64910   0.54675   1.000
    H42     H    0.28312   0.84958   0.73542   1.000
    H43     H    0.78313   0.84958   0.73542   1.000
    H44     H    0.05759   0.87665   0.67016   1.000
    H45     H    0.55760   0.87665   0.67016   1.000
    H46     H    0.30605   0.05560   0.79237   1.000
    H47     H    0.80606   0.05561   0.79237   1.000
    H48     H    0.35560   0.24365   0.96000   1.000
    H49     H    0.85561   0.24366   0.96500   1.000
    H50     H    0.16030   0.16943   0.06452   1.000
    H51     H    0.66031   0.16942   0.06452   1.000
    H52     H    0.11138   0.98066   0.89296   1.000
    H53     H    0.61139   0.98066   0.89290   1.000
    H54     H    0.41240   0.35047   0.16954   1.000
    H55     H    0.91240   0.35047   0.16950   1.000
    H56     H    0.18824   0.36885   0.15234   1.000
    H57     H    0.68824   0.36885   0.15234   1.000
    H58     H    0.29333   0.55936   0.34529   1.000
    H59     H    0.79333   0.55936   0.34500   1.000
    H60     H    0.47481   0.94416   0.37938   1.000
    H61     H    0.97482   0.94417   0.37938   1.000
    H62     H    0.38362   0.85216   0.28002   1.000
    H63     H    0.88363   0.85216   0.28002   1.000
    H64     H    0.29156   0.75262   0.30997   1.000
    H65     H    0.79157   0.75263   0.30997   1.000
    H66     H    0.39646   0.14879   0.59452   1.000
    H67     H    0.89647   0.14879   0.59452   1.000
    H68     H    0.15598   0.70633   0.29090   1.000
    H69     H    0.65599   0.70634   0.29090   1.000
    H70     H    0.14766   0.33416   0.35949   1.000
    H71     H    0.64767   0.33415   0.35949   1.000
    H72     H    0.06086   0.26191   0.35930   1.000
    H73     H    0.56086   0.26191   0.35930   1.000
    H74     H    0.08789   0.11269   0.31943   1.000
    H75     H    0.58790   0.11269   0.31942   1.000
    H76     H    0.05159   0.90161   0.22913   1.000
    H77     H    0.55160   0.90161   0.22913   1.000
    H78     H    0.48969   0.78877   0.01103   1.000
    H79     H    0.98970   0.78877   0.01103   1.000
    C80     C    0.32773   0.27352   0.39927   1.000
    C81     C    0.82774   0.27352   0.39927   1.000
    C82     C    0.27790   0.17592   0.30642   1.000
    C83     C    0.77791   0.17592   0.30640   1.000
    C84     C    0.39573   0.16037   0.33739   1.000
    C85     C    0.89574   0.16036   0.33739   1.000
    C86     C    0.29406   0.99458   0.16790   1.000
    C87     C    0.79406   0.99458   0.16790   1.000
    C88     C    0.22515   0.92058   0.14675   1.000
    C89     C    0.72516   0.92058   0.14675   1.000
    C90     C    0.19729   0.81425   0.04922   1.000
    C91     C    0.69730   0.81425   0.04922   1.000
    C92     C    0.23833   0.78135   0.97263   1.000
    C93     C    0.73834   0.78135   0.97263   1.000
    C94     C    0.30773   0.85491   0.99499   1.000
    C95     C    0.80774   0.85491   0.99499   1.000
    N96     N    0.67837   0.89563   0.73346   1.000
    N97     N    0.29098   0.32631   0.12897   1.000
    N98     N    0.79098   0.32631   0.12897   1.000
    N99     N    0.37450   0.47836   0.28353   1.000
    C100    C    0.33551   0.96150   0.09229   1.000
    C101    C    0.83552   0.96150   0.09229   1.000
    C102    C    0.13368   0.61815   0.80803   1.000
    C103    C    0.63369   0.61815   0.80803   1.000
    C104    C    0.25034   0.60714   0.81466   1.000
    C105    C    0.75035   0.60714   0.81466   1.000
    C106    C    0.19779   0.51349   0.71982   1.000
    C107    C    0.69779   0.51349   0.71982   1.000
    C108    C    0.05581   0.20854   0.59819   1.000
    C109    C    0.55582   0.20854   0.59819   1.000
    C110    C    0.07735   0.11147   0.62742   1.000
    C111    C    0.57736   0.11147   0.62742   1.000
    C112    C    0.18262   0.07244   0.56288   1.000
    C113    C    0.68263   0.07244   0.56288   1.000
    C114    C    0.23010   0.18121   0.63886   1.000
    C115    C    0.73010   0.18121   0.63887   1.000
    C116    C    0.21060   0.98559   0.49354   1.000
    C117    C    0.71061   0.98559   0.49354   1.000
    C118    C    0.16302   0.87366   0.41445   1.000
    C119    C    0.66303   0.87366   0.41440   1.000
    C120    C    0.30731   0.20733   0.64958   1.000
    C121    C    0.80732   0.20734   0.64958   1.000
    C122    C    0.44155   0.58322   0.66209   1.000
    C123    C    0.94156   0.58322   0.66209   1.000
    C124    C    0.41453   0.69091   0.68359   1.000
    C125    C    0.91454   0.69091   0.68359   1.000
    C126    C    0.45356   0.87640   0.84862   1.000
    C127    C    0.95357   0.87640   0.84862   1.000
    C128    C    0.43896   0.93360   0.77676   1.000
    C129    C    0.93897   0.93360   0.77676   1.000
    C130    C    0.46012   0.05483   0.82865   1.000
    C131    C    0.96013   0.05483   0.82865   1.000
    C132    C    0.49447   0.11800   0.94970   1.000
    C133    C    0.99448   0.11800   0.94979   1.000
    C134    C    0.48994   0.93861   0.97504   1.000
    C135    C    0.98995   0.93861   0.97505   1.000
    C136    C    0.17227   0.72645   0.60074   1.000
    C137    C    0.67228   0.72645   0.60074   1.000
    C138    C    0.22210   0.82405   0.69359   1.000
    C139    C    0.72211   0.82405   0.69359   1.000
    C140    C    0.10427   0.83961   0.66262   1.000
    C141    C    0.60428   0.83961   0.66262   1.000
    C142    C    0.20595   0.00000   0.83205   1.000
    C143    C    0.70595   0.00000   0.83205   1.000
    C144    C    0.27485   0.07939   0.85326   1.000
    C145    C    0.77486   0.07939   0.85326   1.000
    C146    C    0.30271   0.18572   0.95079   1.000
    C147    C    0.80272   0.18572   0.95079   1.000
    C148    C    0.26167   0.21862   0.02738   1.000
    C149    C    0.76168   0.21862   0.02738   1.000
    C150    C    0.19227   0.14506   0.00000   1.000
    C151    C    0.69228   0.14506   0.00000   1.000
    C152    C    0.16449   0.03847   0.90772   1.000
    C153    C    0.66450   0.03847   0.90772   1.000
    C154    C    0.36632   0.38182   0.19198   1.000
    C155    C    0.86633   0.38182   0.19198   1.000
    C156    C    0.24966   0.39283   0.18535   1.000
    C157    C    0.74967   0.39283   0.18535   1.000
    C158    C    0.30222   0.48648   0.28019   1.000
    C159    C    0.80222   0.48647   0.28019   1.000
    C160    C    0.44419   0.79143   0.40182   1.000
    C161    C    0.94420   0.79143   0.40183   1.000
    C162    C    0.42265   0.88850   0.37259   1.000
    C163    C    0.92266   0.88851   0.37260   1.000
    C164    C    0.31738   0.92753   0.43713   1.000
    C165    C    0.81739   0.92753   0.43714   1.000
    C166    C    0.26990   0.81876   0.36115   1.000
    C167    C    0.76991   0.81876   0.36115   1.000
    C168    C    0.28941   0.01438   0.50648   1.000
    C169    C    0.78941   0.01438   0.50647   1.000
    C170    C    0.33698   0.12632   0.58556   1.000
    C171    C    0.83699   0.12632   0.58557   1.000
    C172    C    0.19269   0.79264   0.35043   1.000
    C173    C    0.69270   0.79264   0.35043   1.000
    C174    C    0.05845   0.41676   0.33792   1.000
    C175    C    0.55846   0.41676   0.33792   1.000
    C176    C    0.08546   0.30907   0.31642   1.000
    C177    C    0.58547   0.30907   0.31642   1.000
    C178    C    0.04644   0.12358   0.15139   1.000
    C179    C    0.54645   0.12358   0.15139   1.000
    C180    C    0.06104   0.06638   0.22325   1.000
    C181    C    0.56105   0.06638   0.22325   1.000
    C182    C    0.03988   0.94515   0.17136   1.000
    C183    C    0.53989   0.94515   0.17136   1.000
    C184    C    0.00553   0.88198   0.05023   1.000
    C185    C    0.50554   0.88198   0.05022   1.000
    C186    C    0.01007   0.06137   0.02497   1.000
    C187    C    0.51007   0.06137   0.02490   1.000
    N188    N    0.40079   0.26281   0.41790   1.000
    N189    N    0.90080   0.26281   0.41795   1.000
    N190    N    0.32164   0.10434   0.26655   1.000
    N191    N    0.82164   0.10434   0.26655   1.000
    N192    N    0.20903   0.67366   0.87104   1.000
    N193    N    0.70903   0.67366   0.87104   1.000
    N194    N    0.12551   0.52162   0.71648   1.000
    N195    N    0.62552   0.52162   0.71648   1.000
    N196    N    0.09921   0.73716   0.58207   1.000
    N197    N    0.59922   0.73716   0.58206   1.000
    N198    N    0.17837   0.89562   0.73346   1.000
    N199    N    0.87450   0.47836   0.28353   1.000
    O200    O    0.06883   0.22445   0.51305   1.000
    O201    O    0.56884   0.22445   0.51304   1.000
    O202    O    0.02438   0.26816   0.66513   1.000
    O203    O    0.52439   0.26816   0.66510   1.000
    O204    O    0.44563   0.53461   0.55717   1.000
    O205    O    0.94563   0.53460   0.55717   1.000
    O206    O    0.45777   0.54668   0.73961   1.000
    O207    O    0.95778   0.54668   0.73961   1.000
    O208    O    0.43532   0.75965   0.80884   1.000
    O209    O    0.93533   0.75965   0.80880   1.000
    O210    O    0.10734   0.03772   0.54818   1.000
    O211    O    0.60735   0.03772   0.54818   1.000
    O212    O    0.43117   0.77552   0.48696   1.000
    O213    O    0.93118   0.77552   0.48697   1.000
    O214    O    0.47562   0.73181   0.33488   1.000
    O215    O    0.97563   0.73181   0.33489   1.000
    O216    O    0.05436   0.46536   0.44283   1.000
    O217    O    0.55438   0.46536   0.44284   1.000
    O218    O    0.04224   0.45330   0.26041   1.000
    O219    O    0.54225   0.45331   0.26041   1.000
    O220    O    0.06468   0.24033   0.19117   1.000
    O221    O    0.56469   0.24033   0.19117   1.000
    O222    O    0.39266   0.96225   0.45183   1.000
    O223    O    0.89267   0.96225   0.45184   1.000
loop_
    _geom_bond_atom_site_label_1
    _geom_bond_atom_site_label_2
    _geom_bond_distance
    _geom_bond_site_symmetry_2
    _ccdc_geom_bond_type
    C150   C148      1.38093      .   S
    C150   H50       1.13584      .   S
    C150   C152      1.36514  1_554   S
    C151   C149      1.38094      .   S
    C151   H51       1.13583      .   S
    C151   C153      1.36514  1_554   S
    H79    C184      1.08836  1_655   S
    H78    C185      1.08836      .   S
    C187   C179      1.43654      .   S
    C187   C132      1.41976  1_554   S
    C187   C134      1.43411  1_544   S
    C186   C178      1.43582      .   S
    C186   C133      1.41952  1_454   S
    C186   C135      1.43410  1_444   S
    C148   N97       1.42515      .   S
    C148   C146      1.40002  1_554   S
    C149   N98       1.42515      .   S
    C149   C147      1.40003  1_554   S
    H9     C91       1.08869      .   S
    H8     C90       1.08868      .   S
    C90    C88       1.39128      .   S
    C90    C92       1.40003  1_554   S
    C91    C89       1.39128      .   S
    C91    C93       1.40002  1_554   S
    C185   C183      1.37929      .   S
    C185   C134      1.41955  1_554   S
    C184   C182      1.37919      .   S
    C184   C135      1.41952  1_454   S
    C100   H12       1.08885  1_565   S
    C100   C86       1.39727      .   S
    C100   C94       1.39205  1_554   S
    C101   H13       1.08885  1_565   S
    C101   C87       1.39727      .   S
    C101   C95       1.39205  1_554   S
    N97    C156      1.39402      .   S
    N97    C154      1.37095      .   S
    N98    C157      1.39401      .   S
    N98    C155      1.37095      .   S
    C89    C87       1.39837      .   S
    C89    H7        1.08811      .   S
    C88    C86       1.39836      .   S
    C88    H6        1.08813      .   S
    C179   O221      1.37076      .   S
    C179   C181      1.38852      .   S
    C178   O220      1.37076      .   S
    C178   C180      1.38852      .   S
    H57    C157      1.08330      .   S
    H56    C156      1.08328      .   S
    C86    N190      1.42522  1_565   S
    C87    N191      1.42522  1_565   S
    H55    C155      1.08353      .   S
    H54    C154      1.08336      .   S
    C182   C180      1.41521  1_565   S
    C182   H76       1.09045      .   S
    C183   C181      1.41522  1_565   S
    C183   H77       1.09045      .   S
    C157   C159      1.37103      .   S
    C156   C158      1.37105      .   S
    O220   C176      1.43625      .   S
    O221   C177      1.43624      .   S
    C154   N99       1.32621      .   S
    C155   N199      1.32621      .   S
    C180   H74       1.08996      .   S
    C181   H75       1.08985      .   S
    O218   C174      1.24641      .   S
    O219   C175      1.24641      .   S
    H2     C82       1.08212      .   S
    H3     C83       1.08209      .   S
    N190   C82       1.39207      .   S
    N190   C84       1.36975      .   S
    N191   C83       1.39201      .   S
    N191   C85       1.36975      .   S
    H63    C163      1.10187      .   S
    H62    C162      1.10178      .   S
    C159   N199      1.38501      .   S
    C159   H59       1.08252      .   S
    C158   N99       1.38502      .   S
    C158   H58       1.08434      .   S
    H69    C173      1.09134      .   S
    H68    C172      1.09134      .   S
    C83    C81       1.36886      .   S
    C82    C80       1.36878      .   S
    H64    C166      1.08780      .   S
    H65    C167      1.08782      .   S
    C177   C175      1.52585      .   S
    C177   H73       1.09468      .   S
    C177   H71       1.10412      .   S
    C176   C174      1.52585      .   S
    C176   H72       1.09466      .   S
    C176   H70       1.10413      .   S
    H5     C85       1.08314      .   S
    H4     C84       1.08313      .   S
    O214   C160      1.27515      .   S
    O215   C161      1.27515      .   S
    C84    N188      1.32892      .   S
    C85    N189      1.32917      .   S
    C174   O216      1.29482      .   S
    C175   O217      1.29493      .   S
    C172   C166      1.41273      .   S
    C172   C118      1.37973      .   S
    C173   C167      1.41271      .   S
    C173   C119      1.37952      .   S
    C166   C164      1.38442      .   S
    C167   C165      1.38443      .   S
    C162   H60       1.09791      .   S
    C162   C160      1.53123      .   S
    C162   O222      1.43034      .   S
    C163   H61       1.09797      .   S
    C163   C161      1.53124      .   S
    C163   O223      1.43033      .   S
    C80    N188      1.38435      .   S
    C80    H0        1.08252      .   S
    C81    N189      1.38434      .   S
    C81    H1        1.08251      .   S
    C160   O212      1.26491      .   S
    C161   O213      1.26488      .   S
    H27    C119      1.08771      .   S
    H26    C118      1.08759      .   S
    C119   C117      1.41940      .   S
    C118   C116      1.41931      .   S
    C164   O222      1.37316      .   S
    C164   C168      1.43429  1_565   S
    C165   O223      1.37316      .   S
    C165   C169      1.43425  1_565   S
    C116   C168      1.43670  1_565   S
    C116   C112      1.43424  1_565   S
    C117   C169      1.43670  1_565   S
    C117   C113      1.43429  1_565   S
    C169   C171      1.41930      .   S
    C168   C170      1.41929      .   S
    O201   C109      1.26496      .   S
    O200   C108      1.26487      .   S
    H40    C136      1.08251      .   S
    H41    C137      1.08252      .   S
    O211   C113      1.37316      .   S
    O211   C111      1.43035      .   S
    O210   C112      1.37318      .   S
    O210   C110      1.43033      .   S
    O205   C123      1.29482      .   S
    O204   C122      1.29487      .   S
    C113   C115      1.38443      .   S
    C112   C114      1.38442      .   S
    N197   C137      1.38432      .   S
    N197   C141      1.32917      .   S
    N196   C136      1.38434      .   S
    N196   C140      1.32911      .   S
    C170   H66       1.08756      .   S
    C170   C120      1.37974      .   S
    C171   H67       1.08758      .   S
    C171   C121      1.37975      .   S
    C109   C111      1.53121      .   S
    C109   O203      1.27494      .   S
    C108   C110      1.53124      .   S
    C108   O202      1.27516      .   S
    C136   C138      1.36877      .   S
    C137   C139      1.36877      .   S
    H20    C110      1.09775      .   S
    H21    C111      1.09791      .   S
    C111   H23       1.10187      .   S
    C110   H22       1.10187      .   S
    C114   C120      1.41273      .   S
    C114   H24       1.08779      .   S
    C115   C121      1.41274      .   S
    C115   H25       1.08776      .   S
    H30    C124      1.10411      .   S
    H31    C125      1.10410      .   S
    H33    C125      1.09463      .   S
    H32    C124      1.09465      .   S
    C121   H29       1.09132      .   S
    C120   H28       1.09135      .   S
    H19    C107      1.08447      .   S
    H18    C106      1.08441      .   S
    C123   C125      1.52585      .   S
    C123   O207      1.24645      .   S
    C122   C124      1.52585      .   S
    C122   O206      1.24647      .   S
    C140   H44       1.08313      .   S
    C140   N198      1.36975      .   S
    C141   H45       1.08314      .   S
    C141   N96       1.36975      .   S
    H34    C128      1.08996      .   S
    H35    C129      1.08985      .   S
    C125   O209      1.43582      .   S
    C124   O208      1.43625      .   S
    C138   N198      1.39208      .   S
    C138   H42       1.08212      .   S
    C139   N96       1.39208      .   S
    C139   H43       1.08210      .   S
    N195   C107      1.38501      .   S
    N195   C103      1.32621      .   S
    N194   C106      1.38502      .   S
    N194   C102      1.32621      .   S
    C107   C105      1.37105      .   S
    C106   C104      1.37103      .   S
    N96    C143      1.38213  1_565   S
    N198   C142      1.38215  1_565   S
    H37    C131      1.09045      .   S
    H36    C130      1.09045      .   S
    C129   C131      1.41522  1_565   S
    C129   C127      1.38852      .   S
    C128   C130      1.41521  1_565   S
    C128   C126      1.38853      .   S
    H47    C145      1.08811      .   S
    H46    C144      1.08812      .   S
    C102   H14       1.08336      .   S
    C102   N192      1.37094      .   S
    C103   H15       1.08306      .   S
    C103   N193      1.37095      .   S
    O209   C127      1.37070      .   S
    O208   C126      1.37076      .   S
    C104   H16       1.08330      .   S
    C104   N192      1.39401      .   S
    C105   H17       1.08328      .   S
    C105   N193      1.39403      .   S
    C131   C133      1.37930      .   S
    C130   C132      1.37838      .   S
    C143   C145      1.43295      .   S
    C143   C153      1.40941      .   S
    C142   C144      1.43293      .   S
    C142   C152      1.40941      .   S
    C127   C135      1.43593      .   S
    C126   C134      1.43582      .   S
    C144   C146      1.39128      .   S
    C145   C147      1.39128      .   S
    N193   C93       1.42515      .   S
    N192   C92       1.42515      .   S
    H53    C153      1.08866  1_565   S
    H52    C152      1.08889  1_565   S
    H10    C94       1.08694      .   S
    H11    C95       1.08694      .   S
    C132   H39       1.08834      .   S
    C133   H38       1.08837  1_655   S
    C147   H49       1.08869      .   S
    C146   H48       1.11142      .   S
    C92    C94       1.39840      .   S
    C93    C95       1.39840      .   S
