# CIF file generated by openbabel 2.4.90, see http://openbabel.sf.net
data_I
_chemical_name_common ''
_cell_length_a 19.009
_cell_length_b 13.056
_cell_length_c 12.882
_cell_angle_alpha 111.49
_cell_angle_beta 105.097
_cell_angle_gamma 98.844
_space_group_name_H-M_alt 'P 1'
_space_group_name_Hall 'P 1'
loop_
    _symmetry_equiv_pos_as_xyz
    x,y,z
loop_
    _atom_site_label
    _atom_site_type_symbol
    _atom_site_fract_x
    _atom_site_fract_y
    _atom_site_fract_z
    _atom_site_occupancy
    N0      N    0.26489   0.88979   0.06720   1.000
    N1      N    0.76489   0.88979   0.06719   1.000
    N2      N    0.73512   0.10997   0.93260   1.000
    N3      N    0.23512   0.10997   0.93242   1.000
    N4      N    0.25000   0.99999   0.50000   1.000
    N5      N    0.75001   0.99999   0.50000   1.000
    N6      N    0.00000   0.99999   0.00001   1.000
    N7      N    0.50001   0.99999   0.00000   1.000
    Zr8     Zr   0.00949   0.39566   0.57500   1.000
    O9      O    0.93475   0.25259   0.42842   1.000
    O10     O    0.07148   0.28080   0.56752   1.000
    O11     O    0.08784   0.53494   0.71573   1.000
    Zr12    Zr   0.50950   0.39566   0.57509   1.000
    O13     O    0.58785   0.53494   0.71579   1.000
    O14     O    0.57149   0.28080   0.56757   1.000
    O15     O    0.43476   0.25259   0.42847   1.000
    Zr16    Zr   0.99052   0.60431   0.42492   1.000
    O17     O    0.91217   0.46498   0.28417   1.000
    O18     O    0.92853   0.71917   0.43244   1.000
    O19     O    0.06525   0.74733   0.57144   1.000
    Zr20    Zr   0.49051   0.60431   0.42492   1.000
    O21     O    0.56525   0.74733   0.57148   1.000
    O22     O    0.42852   0.71917   0.43244   1.000
    O23     O    0.41216   0.46498   0.28412   1.000
    O24     O    0.50594   0.30978   0.67193   1.000
    O25     O    0.49407   0.69019   0.32808   1.000
    O26     O    0.00593   0.30978   0.67188   1.000
    O27     O    0.99407   0.69019   0.32808   1.000
loop_
    _geom_bond_atom_site_label_1
    _geom_bond_atom_site_label_2
    _geom_bond_distance
    _geom_bond_site_symmetry_2
    _ccdc_geom_bond_type
    Zr8    O9        2.06771  1_455   S
    N1     O9        5.08295  1_565   S
    Zr8    O10       2.03545      .   S
    N4     O10       5.36111  1_565   S
    Zr8    O11       2.03885      .   S
    N0     O11       5.01887  1_554   S
    Zr12   O13       2.03868      .   S
    N1     O13       5.01857  1_554   S
    Zr12   O14       2.03541      .   S
    N5     O14       5.36116  1_565   S
    Zr12   O15       2.06796      .   S
    N0     O15       5.08326  1_565   S
    Zr16   O17       2.03924      .   S
    N2     O17       5.02037  1_556   S
    Zr16   O18       2.03540      .   S
    N5     O18       5.36113      .   S
    Zr16   O19       2.06708  1_655   S
    N3     O19       5.08068  1_545   S
    Zr20   O21       2.06733      .   S
    N2     O21       5.08142  1_545   S
    Zr20   O22       2.03541      .   S
    N4     O22       5.36116      .   S
    Zr20   O23       2.03946      .   S
    N3     O23       5.02106  1_556   S
    Zr12   O24       1.96557      .   S
    N7     O24       6.84578  1_564   S
    N7     O25       6.84589      .   S
    Zr20   O25       1.96560      .   S
    Zr8    O26       1.96595      .   S
    N6     O26       6.84642  1_564   S
    Zr16   O27       1.96558      .   S
    N6     O27       6.84585  1_455   S
