# CIF file generated by openbabel 2.4.90, see http://openbabel.sf.net
data_I
_chemical_name_common ''
_cell_length_a 19.009
_cell_length_b 13.056
_cell_length_c 12.882
_cell_angle_alpha 111.49
_cell_angle_beta 105.097
_cell_angle_gamma 98.844
_space_group_name_H-M_alt 'P 1'
_space_group_name_Hall 'P 1'
loop_
    _symmetry_equiv_pos_as_xyz
    x,y,z
loop_
    _atom_site_label
    _atom_site_type_symbol
    _atom_site_fract_x
    _atom_site_fract_y
    _atom_site_fract_z
    _atom_site_occupancy
    N0      N    0.26489   0.88979   0.06720   1.000
    N1      N    0.76489   0.88979   0.06719   1.000
    N2      N    0.73512   0.10997   0.93260   1.000
    N3      N    0.23512   0.10997   0.93242   1.000
    N4      N    0.25000   0.99999   0.50000   1.000
    N5      N    0.75001   0.99999   0.50000   1.000
    N6      N    0.00000   0.99999   0.00001   1.000
    N7      N    0.50001   0.99999   0.00000   1.000
    Zr8     Zr   0.00949   0.39566   0.57500   1.000
    O9      O    0.93475   0.25259   0.42842   1.000
    O10     O    0.07148   0.28080   0.56752   1.000
    O11     O    0.01273   0.30545   0.66473   1.000
    O12     O    0.99914   0.31411   0.67902   1.000
    O13     O    0.08784   0.53494   0.71573   1.000
    Zr14    Zr   0.50950   0.39566   0.57509   1.000
    O15     O    0.58785   0.53494   0.71579   1.000
    O16     O    0.57149   0.28080   0.56757   1.000
    O17     O    0.49914   0.31411   0.67908   1.000
    O18     O    0.51273   0.30545   0.66479   1.000
    O19     O    0.43476   0.25259   0.42847   1.000
    Zr20    Zr   0.99052   0.60431   0.42492   1.000
    O21     O    0.91217   0.46498   0.28417   1.000
    O22     O    0.92853   0.71917   0.43244   1.000
    O23     O    0.06525   0.74733   0.57144   1.000
    O24     O    0.00087   0.68586   0.32093   1.000
    O25     O    0.98728   0.69452   0.33522   1.000
    Zr26    Zr   0.49051   0.60431   0.42492   1.000
    O27     O    0.56525   0.74733   0.57148   1.000
    O28     O    0.50087   0.68586   0.32093   1.000
    O29     O    0.48727   0.69452   0.33522   1.000
    O30     O    0.42852   0.71917   0.43244   1.000
    O31     O    0.41216   0.46498   0.28412   1.000
loop_
    _geom_bond_atom_site_label_1
    _geom_bond_atom_site_label_2
    _geom_bond_distance
    _geom_bond_site_symmetry_2
    _ccdc_geom_bond_type
    Zr8    O9        2.06771  1_455   S
    N1     O9        5.08295  1_565   S
    Zr8    O10       2.03545      .   S
    N4     O10       5.36111  1_565   S
    Zr8    O11       1.92602      .   S
    N6     O11       6.89098  1_564   S
    Zr8    O12       2.02146  1_455   S
    N6     O12       6.80640  1_464   S
    Zr8    O13       2.03885      .   S
    N0     O13       5.01887  1_554   S
    Zr14   O15       2.03868      .   S
    N1     O15       5.01857  1_554   S
    Zr14   O16       2.03541      .   S
    N5     O16       5.36116  1_565   S
    Zr14   O17       2.02107      .   S
    N7     O17       6.80578  1_564   S
    Zr14   O18       1.92567      .   S
    N7     O18       6.89033  1_564   S
    Zr14   O19       2.06796      .   S
    N0     O19       5.08326  1_565   S
    Zr20   O21       2.03924      .   S
    N2     O21       5.02037  1_556   S
    Zr20   O22       2.03540      .   S
    N5     O22       5.36113      .   S
    Zr20   O23       2.06708  1_655   S
    N3     O23       5.08068  1_545   S
    Zr20   O24       2.02108  1_655   S
    N6     O24       6.80584      .   S
    Zr20   O25       1.92568      .   S
    N6     O25       6.89041  1_455   S
    Zr26   O27       2.06733      .   S
    N2     O27       5.08142  1_545   S
    Zr26   O28       2.02109      .   S
    N7     O28       6.80589      .   S
    Zr26   O29       1.92569      .   S
    N7     O29       6.89045      .   S
    Zr26   O30       2.03541      .   S
    N4     O30       5.36116      .   S
    Zr26   O31       2.03946      .   S
    N3     O31       5.02106  1_556   S
