# CIF file generated by openbabel 2.4.90, see http://openbabel.sf.net
data_I
_chemical_name_common ''
_cell_length_a 19.009
_cell_length_b 13.056
_cell_length_c 12.882
_cell_angle_alpha 111.49
_cell_angle_beta 105.097
_cell_angle_gamma 98.844
_space_group_name_H-M_alt 'P 1'
_space_group_name_Hall 'P 1'
loop_
    _symmetry_equiv_pos_as_xyz
    x,y,z
loop_
    _atom_site_label
    _atom_site_type_symbol
    _atom_site_fract_x
    _atom_site_fract_y
    _atom_site_fract_z
    _atom_site_occupancy
    C0      C    0.00949   0.39566   0.57500   1.000
    C1      C    0.50950   0.39566   0.57509   1.000
    C2      C    0.49051   0.60431   0.42492   1.000
    C3      C    0.99052   0.60431   0.42492   1.000
    C4      C    0.31681   0.35087   0.45326   1.000
    C5      C    0.81681   0.35087   0.45326   1.000
    C6      C    0.21688   0.15039   0.26459   1.000
    C7      C    0.71688   0.15039   0.26459   1.000
    C8      C    0.44241   0.12332   0.32985   1.000
    C9      C    0.94242   0.12332   0.32985   1.000
    C10     C    0.19395   0.94436   0.20764   1.000
    C11     C    0.69396   0.94436   0.20764   1.000
    C12     C    0.14440   0.75631   0.03501   1.000
    C13     C    0.64441   0.75632   0.03501   1.000
    C14     C    0.33970   0.83054   0.93549   1.000
    C15     C    0.83971   0.83054   0.93549   1.000
    C16     C    0.38862   0.01931   0.10706   1.000
    C17     C    0.88863   0.01931   0.10706   1.000
    C18     C    0.08761   0.64950   0.83047   1.000
    C19     C    0.58761   0.64951   0.83040   1.000
    C20     C    0.31176   0.63111   0.84767   1.000
    C21     C    0.81177   0.63112   0.84767   1.000
    C22     C    0.20667   0.44061   0.65471   1.000
    C23     C    0.70668   0.44061   0.65470   1.000
    C24     C    0.02519   0.05581   0.62060   1.000
    C25     C    0.52520   0.05581   0.62063   1.000
    C26     C    0.11638   0.14781   0.72000   1.000
    C27     C    0.61638   0.14781   0.72000   1.000
    C28     C    0.20844   0.24735   0.69004   1.000
    C29     C    0.70845   0.24735   0.69004   1.000
    C30     C    0.10355   0.85119   0.40550   1.000
    C31     C    0.60355   0.85119   0.40549   1.000
    C32     C    0.34402   0.29364   0.70911   1.000
    C33     C    0.84403   0.29364   0.70910   1.000
    C34     C    0.35234   0.66582   0.64052   1.000
    C35     C    0.85234   0.66582   0.64053   1.000
    C36     C    0.43914   0.73807   0.64071   1.000
    C37     C    0.93915   0.73807   0.64071   1.000
    C38     C    0.41211   0.88729   0.68058   1.000
    C39     C    0.91212   0.88729   0.68059   1.000
    C40     C    0.44841   0.09837   0.77088   1.000
    C41     C    0.94842   0.09837   0.77088   1.000
    C42     C    0.01031   0.21121   0.98898   1.000
    C43     C    0.51032   0.21121   0.98898   1.000
    C44     C    0.18319   0.64910   0.54675   1.000
    C45     C    0.68320   0.64910   0.54675   1.000
    C46     C    0.28312   0.84958   0.73542   1.000
    C47     C    0.78313   0.84958   0.73542   1.000
    C48     C    0.05759   0.87665   0.67016   1.000
    C49     C    0.55760   0.87665   0.67016   1.000
    C50     C    0.30605   0.05560   0.79237   1.000
    C51     C    0.80606   0.05561   0.79237   1.000
    C52     C    0.35560   0.24365   0.96000   1.000
    C53     C    0.85561   0.24366   0.96500   1.000
    C54     C    0.16030   0.16943   0.06452   1.000
    C55     C    0.66031   0.16942   0.06452   1.000
    C56     C    0.11138   0.98066   0.89296   1.000
    C57     C    0.61139   0.98066   0.89290   1.000
    C58     C    0.41240   0.35047   0.16954   1.000
    C59     C    0.91240   0.35047   0.16950   1.000
    C60     C    0.18824   0.36885   0.15234   1.000
    C61     C    0.68824   0.36885   0.15234   1.000
    C62     C    0.29333   0.55936   0.34529   1.000
    C63     C    0.79333   0.55936   0.34500   1.000
    C64     C    0.47481   0.94416   0.37938   1.000
    C65     C    0.97482   0.94417   0.37938   1.000
    C66     C    0.38362   0.85216   0.28002   1.000
    C67     C    0.88363   0.85216   0.28002   1.000
    C68     C    0.29156   0.75262   0.30997   1.000
    C69     C    0.79157   0.75263   0.30997   1.000
    C70     C    0.39646   0.14879   0.59452   1.000
    C71     C    0.89647   0.14879   0.59452   1.000
    C72     C    0.15598   0.70633   0.29090   1.000
    C73     C    0.65599   0.70634   0.29090   1.000
    C74     C    0.14766   0.33416   0.35949   1.000
    C75     C    0.64767   0.33415   0.35949   1.000
    C76     C    0.06086   0.26191   0.35930   1.000
    C77     C    0.56086   0.26191   0.35930   1.000
    C78     C    0.08789   0.11269   0.31943   1.000
    C79     C    0.58790   0.11269   0.31942   1.000
    C80     C    0.05159   0.90161   0.22913   1.000
    C81     C    0.55160   0.90161   0.22913   1.000
    C82     C    0.48969   0.78877   0.01103   1.000
    C83     C    0.98970   0.78877   0.01103   1.000
    C84     C    0.32773   0.27352   0.39927   1.000
    C85     C    0.82774   0.27352   0.39927   1.000
    C86     C    0.27790   0.17592   0.30642   1.000
    C87     C    0.77791   0.17592   0.30640   1.000
    C88     C    0.39573   0.16037   0.33739   1.000
    C89     C    0.89574   0.16036   0.33739   1.000
    C90     C    0.29406   0.99458   0.16790   1.000
    C91     C    0.79406   0.99458   0.16790   1.000
    C92     C    0.22515   0.92058   0.14675   1.000
    C93     C    0.72516   0.92058   0.14675   1.000
    C94     C    0.19729   0.81425   0.04922   1.000
    C95     C    0.69730   0.81425   0.04922   1.000
    C96     C    0.23833   0.78135   0.97263   1.000
    C97     C    0.73834   0.78135   0.97263   1.000
    C98     C    0.30773   0.85491   0.99499   1.000
    C99     C    0.80774   0.85491   0.99499   1.000
    C100    C    0.33551   0.96150   0.09229   1.000
    C101    C    0.83552   0.96150   0.09229   1.000
    C102    C    0.13368   0.61815   0.80803   1.000
    C103    C    0.63369   0.61815   0.80803   1.000
    C104    C    0.25034   0.60714   0.81466   1.000
    C105    C    0.75035   0.60714   0.81466   1.000
    C106    C    0.19779   0.51349   0.71982   1.000
    C107    C    0.69779   0.51349   0.71982   1.000
    C108    C    0.05581   0.20854   0.59819   1.000
    C109    C    0.55582   0.20854   0.59819   1.000
    C110    C    0.07735   0.11147   0.62742   1.000
    C111    C    0.57736   0.11147   0.62742   1.000
    C112    C    0.18262   0.07244   0.56288   1.000
    C113    C    0.68263   0.07244   0.56288   1.000
    C114    C    0.23010   0.18121   0.63886   1.000
    C115    C    0.73010   0.18121   0.63887   1.000
    C116    C    0.21060   0.98559   0.49354   1.000
    C117    C    0.71061   0.98559   0.49354   1.000
    C118    C    0.16302   0.87366   0.41445   1.000
    C119    C    0.66303   0.87366   0.41440   1.000
    C120    C    0.30731   0.20733   0.64958   1.000
    C121    C    0.80732   0.20734   0.64958   1.000
    C122    C    0.44155   0.58322   0.66209   1.000
    C123    C    0.94156   0.58322   0.66209   1.000
    C124    C    0.41453   0.69091   0.68359   1.000
    C125    C    0.91454   0.69091   0.68359   1.000
    C126    C    0.45356   0.87640   0.84862   1.000
    C127    C    0.95357   0.87640   0.84862   1.000
    C128    C    0.43896   0.93360   0.77676   1.000
    C129    C    0.93897   0.93360   0.77676   1.000
    C130    C    0.46012   0.05483   0.82865   1.000
    C131    C    0.96013   0.05483   0.82865   1.000
    C132    C    0.49447   0.11800   0.94970   1.000
    C133    C    0.99448   0.11800   0.94979   1.000
    C134    C    0.48994   0.93861   0.97504   1.000
    C135    C    0.98995   0.93861   0.97505   1.000
    C136    C    0.17227   0.72645   0.60074   1.000
    C137    C    0.67228   0.72645   0.60074   1.000
    C138    C    0.22210   0.82405   0.69359   1.000
    C139    C    0.72211   0.82405   0.69359   1.000
    C140    C    0.10427   0.83961   0.66262   1.000
    C141    C    0.60428   0.83961   0.66262   1.000
    C142    C    0.20595   0.00000   0.83205   1.000
    C143    C    0.70595   0.00000   0.83205   1.000
    C144    C    0.27485   0.07939   0.85326   1.000
    C145    C    0.77486   0.07939   0.85326   1.000
    C146    C    0.30271   0.18572   0.95079   1.000
    C147    C    0.80272   0.18572   0.95079   1.000
    C148    C    0.26167   0.21862   0.02738   1.000
    C149    C    0.76168   0.21862   0.02738   1.000
    C150    C    0.19227   0.14506   0.00000   1.000
    C151    C    0.69228   0.14506   0.00000   1.000
    C152    C    0.16449   0.03847   0.90772   1.000
    C153    C    0.66450   0.03847   0.90772   1.000
    C154    C    0.36632   0.38182   0.19198   1.000
    C155    C    0.86633   0.38182   0.19198   1.000
    C156    C    0.24966   0.39283   0.18535   1.000
    C157    C    0.74967   0.39283   0.18535   1.000
    C158    C    0.30222   0.48648   0.28019   1.000
    C159    C    0.80222   0.48647   0.28019   1.000
    C160    C    0.44419   0.79143   0.40182   1.000
    C161    C    0.94420   0.79143   0.40183   1.000
    C162    C    0.42265   0.88850   0.37259   1.000
    C163    C    0.92266   0.88851   0.37260   1.000
    C164    C    0.31738   0.92753   0.43713   1.000
    C165    C    0.81739   0.92753   0.43714   1.000
    C166    C    0.26990   0.81876   0.36115   1.000
    C167    C    0.76991   0.81876   0.36115   1.000
    C168    C    0.28941   0.01438   0.50648   1.000
    C169    C    0.78941   0.01438   0.50647   1.000
    C170    C    0.33698   0.12632   0.58556   1.000
    C171    C    0.83699   0.12632   0.58557   1.000
    C172    C    0.19269   0.79264   0.35043   1.000
    C173    C    0.69270   0.79264   0.35043   1.000
    C174    C    0.05845   0.41676   0.33792   1.000
    C175    C    0.55846   0.41676   0.33792   1.000
    C176    C    0.08546   0.30907   0.31642   1.000
    C177    C    0.58547   0.30907   0.31642   1.000
    C178    C    0.04644   0.12358   0.15139   1.000
    C179    C    0.54645   0.12358   0.15139   1.000
    C180    C    0.06104   0.06638   0.22325   1.000
    C181    C    0.56105   0.06638   0.22325   1.000
    C182    C    0.03988   0.94515   0.17136   1.000
    C183    C    0.53989   0.94515   0.17136   1.000
    C184    C    0.00553   0.88198   0.05023   1.000
    C185    C    0.50554   0.88198   0.05022   1.000
    C186    C    0.01007   0.06137   0.02497   1.000
    C187    C    0.51007   0.06137   0.02490   1.000
    C188    C    0.40079   0.26281   0.41790   1.000
    C189    C    0.90080   0.26281   0.41795   1.000
    C190    C    0.32164   0.10434   0.26655   1.000
    C191    C    0.82164   0.10434   0.26655   1.000
    C192    C    0.20903   0.67366   0.87104   1.000
    C193    C    0.70903   0.67366   0.87104   1.000
    C194    C    0.12551   0.52162   0.71648   1.000
    C195    C    0.62552   0.52162   0.71648   1.000
    C196    C    0.09921   0.73716   0.58207   1.000
    C197    C    0.59922   0.73716   0.58206   1.000
    C198    C    0.17837   0.89562   0.73346   1.000
    C199    C    0.67837   0.89563   0.73346   1.000
    C200    C    0.29098   0.32631   0.12897   1.000
    C201    C    0.79098   0.32631   0.12897   1.000
    C202    C    0.37450   0.47836   0.28353   1.000
    C203    C    0.87450   0.47836   0.28353   1.000
    C204    C    0.06883   0.22445   0.51305   1.000
    C205    C    0.56884   0.22445   0.51304   1.000
    C206    C    0.02438   0.26816   0.66513   1.000
    C207    C    0.52439   0.26816   0.66510   1.000
    C208    C    0.44563   0.53461   0.55717   1.000
    C209    C    0.94563   0.53460   0.55717   1.000
    C210    C    0.45777   0.54668   0.73961   1.000
    C211    C    0.95778   0.54668   0.73961   1.000
    C212    C    0.43532   0.75965   0.80884   1.000
    C213    C    0.93533   0.75965   0.80880   1.000
    C214    C    0.10734   0.03772   0.54818   1.000
    C215    C    0.60735   0.03772   0.54818   1.000
    C216    C    0.43117   0.77552   0.48696   1.000
    C217    C    0.93118   0.77552   0.48697   1.000
    C218    C    0.47562   0.73181   0.33488   1.000
    C219    C    0.97563   0.73181   0.33489   1.000
    C220    C    0.05436   0.46536   0.44283   1.000
    C221    C    0.55438   0.46536   0.44284   1.000
    C222    C    0.04224   0.45330   0.26041   1.000
    C223    C    0.54225   0.45331   0.26041   1.000
    C224    C    0.06468   0.24033   0.19117   1.000
    C225    C    0.56469   0.24033   0.19117   1.000
    C226    C    0.39266   0.96225   0.45183   1.000
    C227    C    0.89267   0.96225   0.45184   1.000
    O228    O    0.22697   0.18184   0.01369   1.000
    O229    O    0.17629   0.15724   0.03226   1.000
    O230    O    0.17838   0.09177   0.95386   1.000
    O231    O    0.72698   0.18184   0.01369   1.000
    O232    O    0.67629   0.15724   0.03226   1.000
    O233    O    0.67839   0.09177   0.95386   1.000
    O234    O    0.99762   0.83537   0.03063   1.000
    O235    O    0.49762   0.83537   0.03063   1.000
    O236    O    0.52826   0.09247   0.08815   1.000
    O237    O    0.50227   0.08968   0.98730   1.000
    O238    O    0.50001   0.99999   0.99997   1.000
    O239    O    0.02826   0.09247   0.08818   1.000
    O240    O    0.00227   0.08968   0.98738   1.000
    O241    O    0.00001   0.99999   0.00001   1.000
    O242    O    0.27632   0.27246   0.07818   1.000
    O243    O    0.28219   0.20217   0.98909   1.000
    O244    O    0.77633   0.27247   0.07818   1.000
    O245    O    0.78220   0.20217   0.98909   1.000
    O246    O    0.67085   0.78528   0.04212   1.000
    O247    O    0.17085   0.78528   0.04212   1.000
    O248    O    0.21122   0.86741   0.09799   1.000
    O249    O    0.21781   0.79780   0.01093   1.000
    O250    O    0.71123   0.86741   0.09799   1.000
    O251    O    0.71782   0.79780   0.01093   1.000
    O252    O    0.52271   0.91356   0.11079   1.000
    O253    O    0.49774   0.91029   0.01263   1.000
    O254    O    0.02271   0.91356   0.11080   1.000
    O255    O    0.99774   0.91029   0.01264   1.000
    O256    O    0.36207   0.99040   0.09967   1.000
    O257    O    0.31478   0.97804   0.13010   1.000
    O258    O    0.32162   0.90820   0.04364   1.000
    O259    O    0.86207   0.99040   0.09967   1.000
    O260    O    0.81479   0.97804   0.13010   1.000
    O261    O    0.82163   0.90820   0.04364   1.000
    O262    O    0.27032   0.35957   0.15716   1.000
    O263    O    0.32865   0.35406   0.16048   1.000
    O264    O    0.77032   0.35957   0.15716   1.000
    O265    O    0.82865   0.35406   0.16048   1.000
    O266    O    0.75961   0.95758   0.15733   1.000
    O267    O    0.70956   0.93247   0.17720   1.000
    O268    O    0.25960   0.95758   0.15733   1.000
    O269    O    0.20955   0.93247   0.17720   1.000
    O270    O    0.55557   0.18195   0.17128   1.000
    O271    O    0.55375   0.09498   0.18732   1.000
    O272    O    0.05556   0.18195   0.17128   1.000
    O273    O    0.05374   0.09498   0.18732   1.000
    O274    O    0.71895   0.38084   0.16885   1.000
    O275    O    0.21895   0.38084   0.16885   1.000
    O276    O    0.30785   0.04946   0.21723   1.000
    O277    O    0.80785   0.04946   0.21723   1.000
    O278    O    0.88936   0.36615   0.18074   1.000
    O279    O    0.38936   0.36614   0.18076   1.000
    O280    O    0.05046   0.00576   0.19731   1.000
    O281    O    0.04574   0.92338   0.20025   1.000
    O282    O    0.55047   0.00576   0.19731   1.000
    O283    O    0.54574   0.92338   0.20025   1.000
    O284    O    0.77594   0.43965   0.23277   1.000
    O285    O    0.27594   0.43965   0.23277   1.000
    O286    O    0.07507   0.27470   0.25379   1.000
    O287    O    0.57508   0.27470   0.25379   1.000
    O288    O    0.37041   0.43009   0.23776   1.000
    O289    O    0.87041   0.43009   0.23776   1.000
    O290    O    0.07447   0.08953   0.27134   1.000
    O291    O    0.57448   0.08953   0.27134   1.000
    O292    O    0.05034   0.43503   0.29917   1.000
    O293    O    0.55036   0.43503   0.29917   1.000
    O294    O    0.24739   0.16315   0.28551   1.000
    O295    O    0.74740   0.16315   0.28550   1.000
    O296    O    0.29977   0.14013   0.28649   1.000
    O297    O    0.35868   0.13236   0.30197   1.000
    O298    O    0.79978   0.14013   0.28648   1.000
    O299    O    0.85869   0.13235   0.30197   1.000
    O300    O    0.90315   0.87034   0.32631   1.000
    O301    O    0.40314   0.87033   0.32631   1.000
    O302    O    0.83836   0.48242   0.28186   1.000
    O303    O    0.79778   0.52292   0.31260   1.000
    O304    O    0.33836   0.48242   0.28186   1.000
    O305    O    0.29777   0.52292   0.31274   1.000
    O306    O    0.93251   0.54134   0.35423   1.000
    O307    O    0.43250   0.54134   0.35423   1.000
    O308    O    0.67434   0.74949   0.32067   1.000
    O309    O    0.17433   0.74949   0.32067   1.000
    O310    O    0.80282   0.22472   0.35284   1.000
    O311    O    0.30282   0.22472   0.35285   1.000
    O312    O    0.28073   0.78569   0.33556   1.000
    O313    O    0.78074   0.78570   0.33556   1.000
    O314    O    0.57197   0.36291   0.32717   1.000
    O315    O    0.57317   0.28549   0.33786   1.000
    O316    O    0.61657   0.32161   0.33796   1.000
    O317    O    0.07196   0.36291   0.32717   1.000
    O318    O    0.07316   0.28549   0.33786   1.000
    O319    O    0.11656   0.32161   0.33796   1.000
    O320    O    0.91908   0.14184   0.33362   1.000
    O321    O    0.41907   0.14184   0.33362   1.000
    O322    O    0.45991   0.76162   0.36835   1.000
    O323    O    0.48307   0.66806   0.37990   1.000
    O324    O    0.95992   0.76162   0.36836   1.000
    O325    O    0.98307   0.66806   0.37991   1.000
    O326    O    0.39826   0.21159   0.37765   1.000
    O327    O    0.89827   0.21159   0.37767   1.000
    O328    O    0.05640   0.44106   0.39038   1.000
    O329    O    0.55642   0.44106   0.39038   1.000
    O330    O    0.23130   0.80570   0.35579   1.000
    O331    O    0.17785   0.83315   0.38244   1.000
    O332    O    0.73131   0.80570   0.35579   1.000
    O333    O    0.67786   0.83315   0.38242   1.000
    O334    O    0.29364   0.87315   0.39914   1.000
    O335    O    0.79365   0.87315   0.39915   1.000
    O336    O    0.44873   0.91633   0.37599   1.000
    O337    O    0.43342   0.83997   0.38721   1.000
    O338    O    0.40766   0.92538   0.41221   1.000
    O339    O    0.94874   0.91634   0.37599   1.000
    O340    O    0.93343   0.83997   0.38722   1.000
    O341    O    0.90766   0.92538   0.41222   1.000
    O342    O    0.36426   0.26816   0.40859   1.000
    O343    O    0.32227   0.31219   0.42627   1.000
    O344    O    0.86427   0.26816   0.40861   1.000
    O345    O    0.82228   0.31219   0.42627   1.000
    O346    O    0.43768   0.78347   0.44439   1.000
    O347    O    0.93769   0.78348   0.44440   1.000
    O348    O    0.63329   0.86242   0.40995   1.000
    O349    O    0.13328   0.86242   0.40998   1.000
    O350    O    0.68682   0.92963   0.45397   1.000
    O351    O    0.18681   0.92963   0.45400   1.000
    O352    O    0.45514   0.32924   0.49650   1.000
    O353    O    0.95514   0.32923   0.49648   1.000
    O354    O    0.52244   0.53484   0.43388   1.000
    O355    O    0.54487   0.67074   0.50349   1.000
    O356    O    0.02244   0.53484   0.43388   1.000
    O357    O    0.04486   0.67074   0.50350   1.000
    O358    O    0.35502   0.94489   0.44448   1.000
    O359    O    0.30339   0.97096   0.47181   1.000
    O360    O    0.85503   0.94489   0.44449   1.000
    O361    O    0.80340   0.97096   0.47181   1.000
    O362    O    0.25000   0.99999   0.50001   1.000
    O363    O    0.19661   0.02902   0.52821   1.000
    O364    O    0.75001   0.99999   0.50001   1.000
    O365    O    0.69662   0.02902   0.52821   1.000
    O366    O    0.81320   0.07035   0.54602   1.000
    O367    O    0.31319   0.07035   0.54602   1.000
    O368    O    0.56233   0.21650   0.55562   1.000
    O369    O    0.06232   0.21650   0.55562   1.000
    O370    O    0.17773   0.68778   0.57375   1.000
    O371    O    0.67774   0.68778   0.57375   1.000
    O372    O    0.64499   0.05508   0.55553   1.000
    O373    O    0.59235   0.07460   0.58780   1.000
    O374    O    0.14498   0.05508   0.55553   1.000
    O375    O    0.09235   0.07460   0.58780   1.000
    O376    O    0.97756   0.46513   0.56609   1.000
    O377    O    0.94359   0.55891   0.60963   1.000
    O378    O    0.47756   0.46513   0.56613   1.000
    O379    O    0.44359   0.55891   0.60963   1.000
    O380    O    0.70637   0.12683   0.60088   1.000
    O381    O    0.20636   0.12683   0.60087   1.000
    O382    O    0.01693   0.33191   0.62007   1.000
    O383    O    0.06750   0.45864   0.64574   1.000
    O384    O    0.51694   0.33191   0.62010   1.000
    O385    O    0.56751   0.45864   0.64579   1.000
    O386    O    0.63575   0.73181   0.59140   1.000
    O387    O    0.60175   0.78838   0.62234   1.000
    O388    O    0.13574   0.73181   0.59141   1.000
    O389    O    0.10174   0.78838   0.62235   1.000
    O390    O    0.36672   0.13755   0.59004   1.000
    O391    O    0.32215   0.16683   0.61757   1.000
    O392    O    0.86673   0.13755   0.59005   1.000
    O393    O    0.82215   0.16683   0.61758   1.000
    O394    O    0.56659   0.16000   0.61281   1.000
    O395    O    0.54010   0.23835   0.63165   1.000
    O396    O    0.06658   0.16001   0.61281   1.000
    O397    O    0.04009   0.23835   0.63166   1.000
    O398    O    0.19718   0.77525   0.64717   1.000
    O399    O    0.69719   0.77525   0.64717   1.000
    O400    O    0.05127   0.08364   0.62401   1.000
    O401    O    0.55128   0.08364   0.62403   1.000
    O402    O    0.59687   0.12964   0.67371   1.000
    O403    O    0.09686   0.12964   0.67371   1.000
    O404    O    0.26871   0.19427   0.64422   1.000
    O405    O    0.21927   0.21428   0.66445   1.000
    O406    O    0.76871   0.19428   0.64423   1.000
    O407    O    0.71928   0.21428   0.66446   1.000
    O408    O    0.38344   0.67836   0.66206   1.000
    O409    O    0.88344   0.67836   0.66206   1.000
    O410    O    0.92685   0.71449   0.66215   1.000
    O411    O    0.42684   0.71449   0.66215   1.000
    O412    O    0.82567   0.25049   0.67934   1.000
    O413    O    0.32567   0.25049   0.67935   1.000
    O414    O    0.70224   0.47705   0.68726   1.000
    O415    O    0.20223   0.47705   0.68727   1.000
    O416    O    0.92805   0.63706   0.67284   1.000
    O417    O    0.94967   0.56495   0.70085   1.000
    O418    O    0.42804   0.63706   0.67284   1.000
    O419    O    0.44966   0.56495   0.70085   1.000
    O420    O    0.08093   0.85813   0.66639   1.000
    O421    O    0.14132   0.86761   0.69804   1.000
    O422    O    0.58094   0.85813   0.66639   1.000
    O423    O    0.64133   0.86762   0.69804   1.000
    O424    O    0.42554   0.91044   0.72867   1.000
    O425    O    0.92554   0.91044   0.72868   1.000
    O426    O    0.92493   0.72528   0.74620   1.000
    O427    O    0.42493   0.72528   0.74622   1.000
    O428    O    0.20023   0.85983   0.71353   1.000
    O429    O    0.25261   0.83681   0.71451   1.000
    O430    O    0.70024   0.85984   0.71353   1.000
    O431    O    0.75262   0.83682   0.71451   1.000
    O432    O    0.66166   0.51755   0.71815   1.000
    O433    O    0.62960   0.56988   0.76226   1.000
    O434    O    0.16165   0.51755   0.71815   1.000
    O435    O    0.12960   0.56988   0.76226   1.000
    O436    O    0.72407   0.56032   0.76724   1.000
    O437    O    0.22407   0.56032   0.76724   1.000
    O438    O    0.69216   0.94781   0.78276   1.000
    O439    O    0.19216   0.94781   0.78276   1.000
    O440    O    0.95428   0.07660   0.79977   1.000
    O441    O    0.45427   0.07660   0.79977   1.000
    O442    O    0.94955   0.99421   0.80271   1.000
    O443    O    0.94627   0.90500   0.81269   1.000
    O444    O    0.44954   0.99421   0.80271   1.000
    O445    O    0.44626   0.90500   0.81269   1.000
    O446    O    0.79046   0.06750   0.82281   1.000
    O447    O    0.29045   0.06750   0.82281   1.000
    O448    O    0.11065   0.63383   0.81925   1.000
    O449    O    0.17136   0.64591   0.83954   1.000
    O450    O    0.61065   0.63383   0.81922   1.000
    O451    O    0.67136   0.64591   0.83954   1.000
    O452    O    0.94445   0.81802   0.82871   1.000
    O453    O    0.44444   0.81803   0.82873   1.000
    O454    O    0.28105   0.61913   0.83117   1.000
    O455    O    0.22968   0.64040   0.84285   1.000
    O456    O    0.78106   0.61913   0.83117   1.000
    O457    O    0.72969   0.64040   0.84285   1.000
    O458    O    0.97731   0.08641   0.88922   1.000
    O459    O    0.47730   0.08641   0.88918   1.000
    O460    O    0.74041   0.03970   0.84266   1.000
    O461    O    0.68523   0.01924   0.86989   1.000
    O462    O    0.24040   0.03970   0.84266   1.000
    O463    O    0.18522   0.01924   0.86989   1.000
    O464    O    0.97176   0.90751   0.91184   1.000
    O465    O    0.47175   0.90751   0.91183   1.000
    O466    O    0.28878   0.13256   0.90203   1.000
    O467    O    0.78879   0.13256   0.90203   1.000
    O468    O    0.72369   0.72751   0.92184   1.000
    O469    O    0.22368   0.72751   0.92184   1.000
    O470    O    0.63795   0.00957   0.90031   1.000
    O471    O    0.13794   0.00957   0.90034   1.000
    O472    O    0.32372   0.84272   0.96524   1.000
    O473    O    0.82373   0.84272   0.96524   1.000
    O474    O    0.50239   0.16461   0.96934   1.000
    O475    O    0.00239   0.16461   0.96939   1.000
    O476    O    0.82916   0.21469   0.95790   1.000
    O477    O    0.32916   0.21469   0.95539   1.000
    O478    O    0.27303   0.81813   0.98381   1.000
    O479    O    0.77304   0.81813   0.98381   1.000
    O480    O    0.46807   0.56946   0.49105   1.000
    O481    O    0.96807   0.56946   0.49105   1.000
    O482    O    0.03193   0.43051   0.50892   1.000
    O483    O    0.53194   0.43051   0.50897   1.000
loop_
    _geom_bond_atom_site_label_1
    _geom_bond_atom_site_label_2
    _geom_bond_distance
    _geom_bond_site_symmetry_2
    _ccdc_geom_bond_type
    C150   O228      0.69047      .   S
    C148   O228      0.69047      .   S
    C150   O229      0.56792      .   S
    C54    O229      0.56792      .   S
    C150   O230      0.68257  1_554   S
    C152   O230      0.68257      .   S
    C151   O231      0.69047      .   S
    C149   O231      0.69047      .   S
    C151   O232      0.56792      .   S
    C55    O232      0.56792      .   S
    C151   O233      0.68257  1_554   S
    C153   O233      0.68257      .   S
    C83    O234      0.54418      .   S
    C184   O234      0.54418  1_455   S
    C82    O235      0.54418      .   S
    C185   O235      0.54418      .   S
    C187   O236      0.71827      .   S
    C179   O236      0.71827      .   S
    C187   O237      0.70988  1_554   S
    C132   O237      0.70988      .   S
    C187   O238      0.71706  1_544   S
    C134   O238      0.71706      .   S
    C186   O239      0.71791      .   S
    C178   O239      0.71791      .   S
    C186   O240      0.70976  1_554   S
    C133   O240      0.70976  1_655   S
    C186   O241      0.71705  1_545   S
    C135   O241      0.71705  1_656   S
    C148   O242      0.71257      .   S
    C200   O242      0.71257      .   S
    C148   O243      0.70001  1_554   S
    C146   O243      0.70001      .   S
    C149   O244      0.71257      .   S
    C201   O244      0.71257      .   S
    C149   O245      0.70002  1_554   S
    C147   O245      0.70002      .   S
    C13    O246      0.54434      .   S
    C95    O246      0.54434      .   S
    C12    O247      0.54434      .   S
    C94    O247      0.54434      .   S
    C94    O248      0.69564      .   S
    C92    O248      0.69564      .   S
    C94    O249      0.70002      .   S
    C96    O249      0.70002  1_556   S
    C95    O250      0.69564      .   S
    C93    O250      0.69564      .   S
    C95    O251      0.70001      .   S
    C97    O251      0.70001  1_556   S
    C185   O252      0.68965      .   S
    C183   O252      0.68965      .   S
    C185   O253      0.70978      .   S
    C134   O253      0.70978  1_556   S
    C184   O254      0.68960      .   S
    C182   O254      0.68960      .   S
    C184   O255      0.70976  1_455   S
    C135   O255      0.70976  1_556   S
    C100   O256      0.54442      .   S
    C16    O256      0.54442  1_545   S
    C100   O257      0.69863      .   S
    C90    O257      0.69863      .   S
    C100   O258      0.69603      .   S
    C98    O258      0.69603  1_556   S
    C101   O259      0.54442      .   S
    C17    O259      0.54442  1_545   S
    C101   O260      0.69863      .   S
    C91    O260      0.69863      .   S
    C101   O261      0.69603      .   S
    C99    O261      0.69603  1_556   S
    C200   O262      0.69701      .   S
    C156   O262      0.69701      .   S
    C200   O263      0.68547      .   S
    C154   O263      0.68547      .   S
    C201   O264      0.69701      .   S
    C157   O264      0.69701      .   S
    C201   O265      0.68548      .   S
    C155   O265      0.68548      .   S
    C93    O266      0.69918      .   S
    C91    O266      0.69918      .   S
    C93    O267      0.54406      .   S
    C11    O267      0.54406      .   S
    C92    O268      0.69918      .   S
    C90    O268      0.69918      .   S
    C92    O269      0.54406      .   S
    C10    O269      0.54406      .   S
    C179   O270      0.68538      .   S
    C225   O270      0.68538      .   S
    C179   O271      0.69426      .   S
    C181   O271      0.69426      .   S
    C178   O272      0.68538      .   S
    C224   O272      0.68538      .   S
    C178   O273      0.69426      .   S
    C180   O273      0.69426      .   S
    C61    O274      0.54165      .   S
    C157   O274      0.54165      .   S
    C60    O275      0.54164      .   S
    C156   O275      0.54164      .   S
    C90    O276      0.71261  1_565   S
    C190   O276      0.71261      .   S
    C91    O277      0.71261  1_565   S
    C191   O277      0.71261      .   S
    C59    O278      0.54176      .   S
    C155   O278      0.54176      .   S
    C58    O279      0.54168      .   S
    C154   O279      0.54168      .   S
    C182   O280      0.70760  1_565   S
    C180   O280      0.70760      .   S
    C182   O281      0.54523      .   S
    C80    O281      0.54523      .   S
    C183   O282      0.70761  1_565   S
    C181   O282      0.70761      .   S
    C183   O283      0.54523      .   S
    C81    O283      0.54523      .   S
    C157   O284      0.68552      .   S
    C159   O284      0.68552      .   S
    C156   O285      0.68552      .   S
    C158   O285      0.68552      .   S
    C224   O286      0.71812      .   S
    C176   O286      0.71812      .   S
    C225   O287      0.71812      .   S
    C177   O287      0.71812      .   S
    C154   O288      0.66311      .   S
    C202   O288      0.66311      .   S
    C155   O289      0.66311      .   S
    C203   O289      0.66311      .   S
    C180   O290      0.54498      .   S
    C78    O290      0.54498      .   S
    C181   O291      0.54493      .   S
    C79    O291      0.54493      .   S
    C222   O292      0.62321      .   S
    C174   O292      0.62321      .   S
    C223   O293      0.62321      .   S
    C175   O293      0.62321      .   S
    C6     O294      0.54106      .   S
    C86    O294      0.54106      .   S
    C7     O295      0.54105      .   S
    C87    O295      0.54105      .   S
    C190   O296      0.69604      .   S
    C86    O296      0.69604      .   S
    C190   O297      0.68488      .   S
    C88    O297      0.68488      .   S
    C191   O298      0.69600      .   S
    C87    O298      0.69600      .   S
    C191   O299      0.68488      .   S
    C89    O299      0.68488      .   S
    C67    O300      0.55094      .   S
    C163   O300      0.55094      .   S
    C66    O301      0.55089      .   S
    C162   O301      0.55089      .   S
    C159   O302      0.69250      .   S
    C203   O302      0.69250      .   S
    C159   O303      0.54126      .   S
    C63    O303      0.54126      .   S
    C158   O304      0.69251      .   S
    C202   O304      0.69251      .   S
    C158   O305      0.54217      .   S
    C62    O305      0.54217      .   S
    C203   O306      1.17082      .   S
    C3     O306      1.17082      .   S
    C202   O307      1.17082      .   S
    C2     O307      1.17082      .   S
    C73    O308      0.54567      .   S
    C173   O308      0.54567      .   S
    C72    O309      0.54567      .   S
    C172   O309      0.54567      .   S
    C87    O310      0.68443      .   S
    C85    O310      0.68443      .   S
    C86    O311      0.68439      .   S
    C84    O311      0.68439      .   S
    C68    O312      0.54390      .   S
    C166   O312      0.54390      .   S
    C69    O313      0.54391      .   S
    C167   O313      0.54391      .   S
    C177   O314      0.76293      .   S
    C175   O314      0.76293      .   S
    C177   O315      0.54734      .   S
    C77    O315      0.54734      .   S
    C177   O316      0.55206      .   S
    C75    O316      0.55206      .   S
    C176   O317      0.76292      .   S
    C174   O317      0.76292      .   S
    C176   O318      0.54733      .   S
    C76    O318      0.54733      .   S
    C176   O319      0.55206      .   S
    C74    O319      0.55206      .   S
    C9     O320      0.54157      .   S
    C89    O320      0.54157      .   S
    C8     O321      0.54156      .   S
    C88    O321      0.54156      .   S
    C218   O322      0.63758      .   S
    C160   O322      0.63758      .   S
    C218   O323      1.18161      .   S
    C2     O323      1.18161      .   S
    C219   O324      0.63757      .   S
    C161   O324      0.63757      .   S
    C219   O325      1.18157      .   S
    C3     O325      1.18157      .   S
    C88    O326      0.66446      .   S
    C188   O326      0.66446      .   S
    C89    O327      0.66458      .   S
    C189   O327      0.66458      .   S
    C174   O328      0.64741      .   S
    C220   O328      0.64741      .   S
    C175   O329      0.64747      .   S
    C221   O329      0.64747      .   S
    C172   O330      0.70636      .   S
    C166   O330      0.70636      .   S
    C172   O331      0.68987      .   S
    C118   O331      0.68987      .   S
    C173   O332      0.70636      .   S
    C167   O332      0.70636      .   S
    C173   O333      0.68976      .   S
    C119   O333      0.68976      .   S
    C166   O334      0.69221      .   S
    C164   O334      0.69221      .   S
    C167   O335      0.69222      .   S
    C165   O335      0.69222      .   S
    C162   O336      0.54895      .   S
    C64    O336      0.54895      .   S
    C162   O337      0.76561      .   S
    C160   O337      0.76561      .   S
    C162   O338      0.71517      .   S
    C226   O338      0.71517      .   S
    C163   O339      0.54899      .   S
    C65    O339      0.54899      .   S
    C163   O340      0.76562      .   S
    C161   O340      0.76562      .   S
    C163   O341      0.71516      .   S
    C227   O341      0.71516      .   S
    C84    O342      0.69218      .   S
    C188   O342      0.69218      .   S
    C84    O343      0.54126      .   S
    C4     O343      0.54126      .   S
    C85    O344      0.69217      .   S
    C189   O344      0.69217      .   S
    C85    O345      0.54125      .   S
    C5     O345      0.54125      .   S
    C160   O346      0.63245      .   S
    C216   O346      0.63245      .   S
    C161   O347      0.63244      .   S
    C217   O347      0.63244      .   S
    C31    O348      0.54386      .   S
    C119   O348      0.54386      .   S
    C30    O349      0.54380      .   S
    C118   O349      0.54380      .   S
    C119   O350      0.70970      .   S
    C117   O350      0.70970      .   S
    C118   O351      0.70966      .   S
    C116   O351      0.70966      .   S
    C188   O352      1.17513      .   S
    C1     O352      1.17513      .   S
    C189   O353      1.17472      .   S
    C0     O353      1.17472  1_455   S
    C2     O354      1.18915      .   S
    C221   O354      1.18915      .   S
    C2     O355      1.17502      .   S
    C197   O355      1.17502      .   S
    C3     O356      1.18905  1_655   S
    C220   O356      1.18905      .   S
    C3     O357      1.17497  1_655   S
    C196   O357      1.17497      .   S
    C164   O358      0.68658      .   S
    C226   O358      0.68658      .   S
    C164   O359      0.71715      .   S
    C168   O359      0.71715  1_545   S
    C165   O360      0.68658      .   S
    C227   O360      0.68658      .   S
    C165   O361      0.71712      .   S
    C169   O361      0.71712  1_545   S
    C116   O362      0.71835      .   S
    C168   O362      0.71835  1_545   S
    C116   O363      0.71712  1_565   S
    C112   O363      0.71712      .   S
    C117   O364      0.71835      .   S
    C169   O364      0.71835  1_545   S
    C117   O365      0.71715  1_565   S
    C113   O365      0.71715      .   S
    C169   O366      0.70965      .   S
    C171   O366      0.70965      .   S
    C168   O367      0.70965      .   S
    C170   O367      0.70965      .   S
    C205   O368      0.63248      .   S
    C109   O368      0.63248      .   S
    C204   O369      0.63243      .   S
    C108   O369      0.63243      .   S
    C44    O370      0.54125      .   S
    C136   O370      0.54125      .   S
    C45    O371      0.54126      .   S
    C137   O371      0.54126      .   S
    C215   O372      0.68658      .   S
    C113   O372      0.68658      .   S
    C215   O373      0.71518      .   S
    C111   O373      0.71518      .   S
    C214   O374      0.68659      .   S
    C112   O374      0.68659      .   S
    C214   O375      0.71517      .   S
    C110   O375      0.71517      .   S
    C209   O376      1.18894      .   S
    C0     O376      1.18894  1_455   S
    C209   O377      0.64741      .   S
    C123   O377      0.64741      .   S
    C208   O378      1.18916      .   S
    C1     O378      1.18916      .   S
    C208   O379      0.64743      .   S
    C122   O379      0.64743      .   S
    C113   O380      0.69221      .   S
    C115   O380      0.69221      .   S
    C112   O381      0.69221      .   S
    C114   O381      0.69221      .   S
    C0     O382      1.18204      .   S
    C206   O382      1.18204      .   S
    C0     O383      1.17099      .   S
    C194   O383      1.17099      .   S
    C1     O384      1.18148      .   S
    C207   O384      1.18148      .   S
    C1     O385      1.17083      .   S
    C195   O385      1.17083      .   S
    C197   O386      0.69216      .   S
    C137   O386      0.69216      .   S
    C197   O387      0.66458      .   S
    C141   O387      0.66458      .   S
    C196   O388      0.69217      .   S
    C136   O388      0.69217      .   S
    C196   O389      0.66456      .   S
    C140   O389      0.66456      .   S
    C170   O390      0.54378      .   S
    C70    O390      0.54378      .   S
    C170   O391      0.68987      .   S
    C120   O391      0.68987      .   S
    C171   O392      0.54379      .   S
    C71    O392      0.54379      .   S
    C171   O393      0.68987      .   S
    C121   O393      0.68987      .   S
    C109   O394      0.76561      .   S
    C111   O394      0.76561      .   S
    C109   O395      0.63747      .   S
    C207   O395      0.63747      .   S
    C108   O396      0.76562      .   S
    C110   O396      0.76562      .   S
    C108   O397      0.63758      .   S
    C206   O397      0.63758      .   S
    C136   O398      0.68438      .   S
    C138   O398      0.68438      .   S
    C137   O399      0.68438      .   S
    C139   O399      0.68438      .   S
    C24    O400      0.54888      .   S
    C110   O400      0.54888      .   S
    C25    O401      0.54896      .   S
    C111   O401      0.54896      .   S
    C111   O402      0.55094      .   S
    C27    O402      0.55094      .   S
    C110   O403      0.55094      .   S
    C26    O403      0.55094      .   S
    C114   O404      0.70636      .   S
    C120   O404      0.70636      .   S
    C114   O405      0.54390      .   S
    C28    O405      0.54390      .   S
    C115   O406      0.70637      .   S
    C121   O406      0.70637      .   S
    C115   O407      0.54388      .   S
    C29    O407      0.54388      .   S
    C34    O408      0.55206      .   S
    C124   O408      0.55206      .   S
    C35    O409      0.55205      .   S
    C125   O409      0.55205      .   S
    C37    O410      0.54732      .   S
    C125   O410      0.54732      .   S
    C36    O411      0.54732      .   S
    C124   O411      0.54732      .   S
    C121   O412      0.54566      .   S
    C33    O412      0.54566      .   S
    C120   O413      0.54568      .   S
    C32    O413      0.54568      .   S
    C23    O414      0.54223      .   S
    C107   O414      0.54223      .   S
    C22    O415      0.54221      .   S
    C106   O415      0.54221      .   S
    C123   O416      0.76292      .   S
    C125   O416      0.76292      .   S
    C123   O417      0.62322      .   S
    C211   O417      0.62322      .   S
    C122   O418      0.76292      .   S
    C124   O418      0.76292      .   S
    C122   O419      0.62323      .   S
    C210   O419      0.62323      .   S
    C140   O420      0.54157      .   S
    C48    O420      0.54157      .   S
    C140   O421      0.68488      .   S
    C198   O421      0.68488      .   S
    C141   O422      0.54157      .   S
    C49    O422      0.54157      .   S
    C141   O423      0.68488      .   S
    C199   O423      0.68488      .   S
    C38    O424      0.54498      .   S
    C128   O424      0.54498      .   S
    C39    O425      0.54493      .   S
    C129   O425      0.54493      .   S
    C125   O426      0.71791      .   S
    C213   O426      0.71791      .   S
    C124   O427      0.71812      .   S
    C212   O427      0.71812      .   S
    C138   O428      0.69604      .   S
    C198   O428      0.69604      .   S
    C138   O429      0.54106      .   S
    C46    O429      0.54106      .   S
    C139   O430      0.69604      .   S
    C199   O430      0.69604      .   S
    C139   O431      0.54105      .   S
    C47    O431      0.54105      .   S
    C195   O432      0.69250      .   S
    C107   O432      0.69250      .   S
    C195   O433      0.66310      .   S
    C103   O433      0.66310      .   S
    C194   O434      0.69251      .   S
    C106   O434      0.69251      .   S
    C194   O435      0.66310      .   S
    C102   O435      0.66310      .   S
    C107   O436      0.68552      .   S
    C105   O436      0.68552      .   S
    C106   O437      0.68552      .   S
    C104   O437      0.68552      .   S
    C199   O438      0.69107      .   S
    C143   O438      0.69107  1_545   S
    C198   O439      0.69107      .   S
    C142   O439      0.69107  1_545   S
    C41    O440      0.54522      .   S
    C131   O440      0.54522      .   S
    C40    O441      0.54522      .   S
    C130   O441      0.54522      .   S
    C129   O442      0.70761      .   S
    C131   O442      0.70761  1_545   S
    C129   O443      0.69426      .   S
    C127   O443      0.69426      .   S
    C128   O444      0.70760      .   S
    C130   O444      0.70760  1_545   S
    C128   O445      0.69426      .   S
    C126   O445      0.69426      .   S
    C51    O446      0.54406      .   S
    C145   O446      0.54406      .   S
    C50    O447      0.54406      .   S
    C144   O447      0.54406      .   S
    C102   O448      0.54168      .   S
    C18    O448      0.54168      .   S
    C102   O449      0.68547      .   S
    C192   O449      0.68547      .   S
    C103   O450      0.54153      .   S
    C19    O450      0.54153      .   S
    C103   O451      0.68547      .   S
    C193   O451      0.68547      .   S
    C213   O452      0.68535      .   S
    C127   O452      0.68535      .   S
    C212   O453      0.68538      .   S
    C126   O453      0.68538      .   S
    C104   O454      0.54165      .   S
    C20    O454      0.54165      .   S
    C104   O455      0.69701      .   S
    C192   O455      0.69701      .   S
    C105   O456      0.54164      .   S
    C21    O456      0.54164      .   S
    C105   O457      0.69701      .   S
    C193   O457      0.69701      .   S
    C131   O458      0.68965      .   S
    C133   O458      0.68965      .   S
    C130   O459      0.68919      .   S
    C132   O459      0.68919      .   S
    C143   O460      0.71648      .   S
    C145   O460      0.71648      .   S
    C143   O461      0.70471      .   S
    C153   O461      0.70471      .   S
    C142   O462      0.71647      .   S
    C144   O462      0.71647      .   S
    C142   O463      0.70471      .   S
    C152   O463      0.70471      .   S
    C127   O464      0.71796      .   S
    C135   O464      0.71796      .   S
    C126   O465      0.71791      .   S
    C134   O465      0.71791      .   S
    C144   O466      0.69564      .   S
    C146   O466      0.69564      .   S
    C145   O467      0.69564      .   S
    C147   O467      0.69564      .   S
    C193   O468      0.71257      .   S
    C97    O468      0.71257      .   S
    C192   O469      0.71257      .   S
    C96    O469      0.71257      .   S
    C57    O470      0.54433  1_565   S
    C153   O470      0.54433      .   S
    C56    O471      0.54444  1_565   S
    C152   O471      0.54444      .   S
    C14    O472      0.54347      .   S
    C98    O472      0.54347      .   S
    C15    O473      0.54347      .   S
    C99    O473      0.54347      .   S
    C132   O474      0.54417      .   S
    C43    O474      0.54417      .   S
    C133   O475      0.54418  1_655   S
    C42    O475      0.54418      .   S
    C147   O476      0.54434      .   S
    C53    O476      0.54434      .   S
    C146   O477      0.55571      .   S
    C52    O477      0.55571      .   S
    C96    O478      0.69920      .   S
    C98    O478      0.69920      .   S
    C97    O479      0.69920      .   S
    C99    O479      0.69920      .   S
    C208   O480      1.23624      .   S
    C2     O480      1.23624      .   S
    C209   O481      1.23626      .   S
    C3     O481      1.23626      .   S
    C220   O482      1.23569      .   S
    C0     O482      1.23569      .   S
    C221   O483      1.23619      .   S
    C1     O483      1.23619      .   S
