# CIF file generated by openbabel 2.4.90, see http://openbabel.sf.net
data_I
_chemical_name_common ''
_cell_length_a 17.675
_cell_length_b 17.661
_cell_length_c 17.684
_cell_angle_alpha 90.659
_cell_angle_beta 119.543
_cell_angle_gamma 119.714
_space_group_name_H-M_alt 'P 1'
_space_group_name_Hall 'P 1'
loop_
    _symmetry_equiv_pos_as_xyz
    x,y,z
loop_
    _atom_site_label
    _atom_site_type_symbol
    _atom_site_fract_x
    _atom_site_fract_y
    _atom_site_fract_z
    _atom_site_occupancy
    H0      H    0.86754   0.51857   0.92910   1.000
    H1      H    0.01543   0.69065   0.01330   1.000
    H2      H    0.16380   0.76111   0.99513   1.000
    H3      H    0.63297   0.56191   0.65127   1.000
    H4      H    0.48523   0.49840   0.67543   1.000
    H5      H    0.33650   0.33176   0.59720   1.000
    H6      H    0.58996   0.07124   0.43873   1.000
    H7      H    0.67819   0.98759   0.50220   1.000
    H8      H    0.76640   0.00571   0.66838   1.000
    H9      H    0.91006   0.34836   0.48145   1.000
    H10     H    0.82234   0.32397   0.30983   1.000
    H11     H    0.73429   0.40218   0.23972   1.000
    H12     H    0.41006   0.92872   0.56126   1.000
    H13     H    0.32186   0.01237   0.49779   1.000
    H14     H    0.23365   0.99426   0.33161   1.000
    H15     H    0.08997   0.65160   0.51854   1.000
    H16     H    0.17769   0.67598   0.69010   1.000
    H17     H    0.26573   0.59777   0.76027   1.000
    H18     H    0.13249   0.48138   0.07080   1.000
    H19     H    0.98461   0.30931   0.98669   1.000
    H20     H    0.83623   0.23884   0.00486   1.000
    H21     H    0.36707   0.43805   0.34872   1.000
    H22     H    0.51482   0.50157   0.32456   1.000
    H23     H    0.66354   0.66821   0.40271   1.000
    C24     C    0.94026   0.50115   0.86886   1.000
    C25     C    0.93443   0.55289   0.92336   1.000
    C26     C    0.01582   0.64745   0.96922   1.000
    C27     C    0.09975   0.68771   0.95933   1.000
    C28     C    0.10063   0.63173   0.90384   1.000
    C29     C    0.55988   0.42877   0.56095   1.000
    C30     C    0.56594   0.48925   0.61862   1.000
    C31     C    0.48461   0.45377   0.63170   1.000
    C32     C    0.40049   0.35990   0.58793   1.000
    C33     C    0.39939   0.30340   0.53100   1.000
    N34     N    0.97804   0.45897   0.13913   1.000
    N35     N    0.52207   0.66100   0.48100   1.000
    C36     C    0.63204   0.13100   0.57140   1.000
    C37     C    0.62980   0.07692   0.51119   1.000
    C38     C    0.67871   0.03140   0.54663   1.000
    C39     C    0.72859   0.04123   0.64020   1.000
    C40     C    0.72756   0.09626   0.69650   1.000
    C41     C    0.86782   0.43899   0.49902   1.000
    C42     C    0.87028   0.38108   0.44730   1.000
    C43     C    0.82165   0.36782   0.35299   1.000
    C44     C    0.77185   0.41168   0.31294   1.000
    C45     C    0.77265   0.46887   0.36888   1.000
    C46     C    0.25044   0.12563   0.87595   1.000
    C47     C    0.36799   0.86895   0.42856   1.000
    C48     C    0.37021   0.92302   0.48879   1.000
    C49     C    0.32134   0.96857   0.45336   1.000
    C50     C    0.27144   0.95872   0.35975   1.000
    C51     C    0.27249   0.90371   0.30349   1.000
    C52     C    0.13220   0.56097   0.50097   1.000
    C53     C    0.12977   0.61889   0.55270   1.000
    C54     C    0.17837   0.63213   0.64700   1.000
    C55     C    0.22819   0.58829   0.68705   1.000
    C56     C    0.22738   0.53109   0.63110   1.000
    C57     C    0.05978   0.49880   0.13114   1.000
    C58     C    0.06560   0.44706   0.07663   1.000
    C59     C    0.98422   0.35251   0.03078   1.000
    C60     C    0.90027   0.31225   0.04066   1.000
    C61     C    0.89939   0.36823   0.09614   1.000
    C62     C    0.44015   0.57120   0.43904   1.000
    C63     C    0.43410   0.51072   0.38139   1.000
    C64     C    0.51543   0.54620   0.36824   1.000
    C65     C    0.59956   0.64006   0.41207   1.000
    C66     C    0.60064   0.69657   0.46899   1.000
    C67     C    0.74960   0.87433   0.12400   1.000
    N68     N    0.02199   0.54099   0.86085   1.000
    N69     N    0.47796   0.33896   0.51892   1.000
    N70     N    0.67957   0.13890   0.66096   1.000
    N71     N    0.82035   0.48111   0.45939   1.000
    N72     N    0.32048   0.86107   0.33903   1.000
    N73     N    0.17967   0.51885   0.54060   1.000
loop_
    _geom_bond_atom_site_label_1
    _geom_bond_atom_site_label_2
    _geom_bond_distance
    _geom_bond_site_symmetry_2
    _ccdc_geom_bond_type
    H20    C60       1.08743      .   S
    H1     C26       1.08936  1_554   S
    C59    C60       1.39647      .   S
    C59    C58       1.39735  1_655   S
    C59    H19       1.08945  1_554   S
    C60    C61       1.39580      .   S
    H18    C58       1.08950      .   S
    C58    C57       1.39492      .   S
    C61    N34       1.34160      .   S
    C57    N34       1.34103  1_455   S
    H11    C44       1.08736      .   S
    C51    N72       1.34159      .   S
    C51    C50       1.39579      .   S
    H10    C43       1.08966      .   S
    C44    C43       1.39643      .   S
    C44    C45       1.39579      .   S
    H22    C64       1.08965      .   S
    H14    C50       1.08740      .   S
    N72    C47       1.34135      .   S
    H21    C63       1.08862      .   S
    C43    C42       1.39747      .   S
    C50    C49       1.39643      .   S
    C64    C63       1.39745      .   S
    C64    C65       1.39649      .   S
    C45    N71       1.34164      .   S
    C63    C62       1.39496      .   S
    H23    C65       1.08747      .   S
    C65    C66       1.39582      .   S
    C47    C48       1.39503      .   S
    H6     C37       1.08859      .   S
    C62    N35       1.34141      .   S
    C42    H9        1.08860      .   S
    C42    C41       1.39498      .   S
    C49    C48       1.39738      .   S
    C49    H13       1.08986  1_565   S
    N71    C41       1.34141      .   S
    C66    N35       1.34078      .   S
    C48    H12       1.08869      .   S
    C52    N73       1.34143      .   S
    C52    C53       1.39504      .   S
    H7     C38       1.08985  1_565   S
    C37    C38       1.39737      .   S
    C37    C36       1.39471      .   S
    H15    C53       1.08865      .   S
    N69    C33       1.34158      .   S
    N69    C29       1.34142      .   S
    C33    C32       1.39581      .   S
    N73    C56       1.34148      .   S
    C38    C39       1.39588      .   S
    C53    C54       1.39739      .   S
    C29    C30       1.39506      .   S
    C36    N70       1.34173      .   S
    C32    H5        1.08654      .   S
    C32    C31       1.39646      .   S
    C30    C31       1.39679      .   S
    C30    H3        1.08863      .   S
    C56    C55       1.39587      .   S
    C31    H4        1.09027      .   S
    C39    H8        1.08750      .   S
    C39    C40       1.39622      .   S
    C54    C55       1.39643      .   S
    C54    H16       1.08887      .   S
    N70    C40       1.34161      .   S
    C55    H17       1.08742      .   S
    N68    C24       1.34111  1_455   S
    N68    C28       1.34162      .   S
    C24    C25       1.39490      .   S
    C28    C27       1.39582      .   S
    C25    H0        1.08847      .   S
    C25    C26       1.39736  1_655   S
    C27    C26       1.39644      .   S
    C27    H2        1.08742      .   S
