# CIF file generated by openbabel 2.4.90, see http://openbabel.sf.net
data_I
_chemical_name_common ''
_cell_length_a 17.675
_cell_length_b 17.661
_cell_length_c 17.684
_cell_angle_alpha 90.659
_cell_angle_beta 119.543
_cell_angle_gamma 119.714
_space_group_name_H-M_alt 'P 1'
_space_group_name_Hall 'P 1'
loop_
    _symmetry_equiv_pos_as_xyz
    x,y,z
loop_
    _atom_site_label
    _atom_site_type_symbol
    _atom_site_fract_x
    _atom_site_fract_y
    _atom_site_fract_z
    _atom_site_occupancy
    Mc0     Mc   0.35557   0.19039   0.14881   1.000
    Mc1     Mc   0.04240   0.85220   0.70771   1.000
    Mc2     Mc   0.45801   0.16544   0.81028   1.000
    Mc3     Mc   0.14485   0.29329   0.83532   1.000
    Mc4     Mc   0.85518   0.70667   0.16469   1.000
    Mc5     Mc   0.54203   0.83453   0.18971   1.000
    Mc6     Mc   0.95691   0.14776   0.29224   1.000
    Mc7     Mc   0.64447   0.80957   0.85119   1.000
