# CIF file generated by openbabel 2.4.90, see http://openbabel.sf.net
data_I
_chemical_name_common ''
_cell_length_a 17.675
_cell_length_b 17.661
_cell_length_c 17.684
_cell_angle_alpha 90.659
_cell_angle_beta 119.543
_cell_angle_gamma 119.714
_space_group_name_H-M_alt 'P 1'
_space_group_name_Hall 'P 1'
loop_
    _symmetry_equiv_pos_as_xyz
    x,y,z
loop_
    _atom_site_label
    _atom_site_type_symbol
    _atom_site_fract_x
    _atom_site_fract_y
    _atom_site_fract_z
    _atom_site_occupancy
    H0      H    0.21035   0.46438   0.80715   1.000
    H1      H    0.26144   0.35703   0.82615   1.000
    H2      H    0.99854   0.17692   0.84791   1.000
    H3      H    0.95628   0.29367   0.82409   1.000
    H4      H    0.31732   0.27244   0.91566   1.000
    H5      H    0.23732   0.21478   0.79344   1.000
    H6      H    0.28935   0.09662   0.25381   1.000
    H7      H    0.23879   0.06456   0.09570   1.000
    H8      H    0.50221   0.34943   0.17910   1.000
    H9      H    0.54395   0.36781   0.33785   1.000
    H10     H    0.18356   0.09827   0.95567   1.000
    H11     H    0.26351   0.05596   0.97794   1.000
    H12     H    0.65617   0.19225   0.90281   1.000
    H13     H    0.53090   0.17471   0.93578   1.000
    H14     H    0.32949   0.15319   0.65201   1.000
    H15     H    0.46901   0.17559   0.63262   1.000
    H16     H    0.35720   0.08599   0.90277   1.000
    H17     H    0.42220   0.20856   0.94526   1.000
    H18     H    0.84411   0.74691   0.53653   1.000
    H19     H    0.96985   0.90523   0.64449   1.000
    H20     H    0.17069   0.82194   0.82362   1.000
    H21     H    0.03075   0.66299   0.70630   1.000
    H22     H    0.14361   0.04584   0.72956   1.000
    H23     H    0.07869   0.02321   0.78707   1.000
    H24     H    0.34386   0.80770   0.09718   1.000
    H25     H    0.46914   0.82526   0.06422   1.000
    H26     H    0.67055   0.84679   0.34799   1.000
    H27     H    0.53102   0.82437   0.36738   1.000
    H28     H    0.64283   0.91398   0.09721   1.000
    H29     H    0.57784   0.79140   0.05475   1.000
    H30     H    0.15592   0.25306   0.46340   1.000
    H31     H    0.03020   0.09474   0.35551   1.000
    H32     H    0.82934   0.17801   0.17637   1.000
    H33     H    0.96928   0.33697   0.29368   1.000
    H34     H    0.85642   0.95413   0.27044   1.000
    H35     H    0.92135   0.97675   0.21293   1.000
    H36     H    0.78967   0.53557   0.19283   1.000
    H37     H    0.73859   0.64292   0.17385   1.000
    H38     H    0.00150   0.82305   0.15210   1.000
    H39     H    0.04375   0.70629   0.17591   1.000
    H40     H    0.68272   0.72752   0.08434   1.000
    H41     H    0.76271   0.78518   0.20656   1.000
    H42     H    0.71069   0.90335   0.74619   1.000
    H43     H    0.76125   0.93540   0.90430   1.000
    H44     H    0.49782   0.65053   0.82083   1.000
    H45     H    0.45608   0.63215   0.66215   1.000
    H46     H    0.81649   0.90168   0.04433   1.000
    H47     H    0.73653   0.94400   0.02206   1.000
    C48     C    0.16538   0.40062   0.81709   1.000
    C49     C    0.19454   0.33939   0.82860   1.000
    C50     C    0.13458   0.25753   0.84045   1.000
    C51     C    0.04768   0.24024   0.83980   1.000
    C52     C    0.02426   0.30486   0.82729   1.000
    C53     C    0.24487   0.20815   0.85818   1.000
    N54     N    0.58214   0.76573   0.69723   1.000
    C55     C    0.33457   0.15157   0.23525   1.000
    C56     C    0.30572   0.13396   0.14505   1.000
    C57     C    0.36598   0.20582   0.12343   1.000
    C58     C    0.45285   0.29211   0.19313   1.000
    C59     C    0.47598   0.30299   0.28097   1.000
    C60     C    0.25601   0.11326   0.96389   1.000
    C61     C    0.58283   0.18273   0.84831   1.000
    C62     C    0.51068   0.17204   0.86645   1.000
    C63     C    0.41745   0.16074   0.79517   1.000
    C64     C    0.40064   0.16101   0.70890   1.000
    C65     C    0.47714   0.17269   0.69745   1.000
    C66     C    0.35076   0.14367   0.88807   1.000
    C67     C    0.91745   0.76556   0.60023   1.000
    C68     C    0.98982   0.85589   0.66183   1.000
    C69     C    0.08304   0.87761   0.74361   1.000
    C70     C    0.09958   0.80788   0.76041   1.000
    C71     C    0.02284   0.71991   0.69548   1.000
    C72     C    0.15008   0.03743   0.79300   1.000
    C73     C    0.41720   0.81723   0.15168   1.000
    C74     C    0.48935   0.82793   0.13355   1.000
    C75     C    0.58259   0.83924   0.20483   1.000
    C76     C    0.59940   0.83896   0.29110   1.000
    C77     C    0.52289   0.82727   0.30254   1.000
    C78     C    0.64928   0.85630   0.11193   1.000
    C79     C    0.08259   0.23441   0.39976   1.000
    C80     C    0.00000   0.14408   0.33817   1.000
    C81     C    0.91700   0.12235   0.25639   1.000
    C82     C    0.90046   0.19208   0.23958   1.000
    C83     C    0.97719   0.28006   0.30451   1.000
    C84     C    0.84996   0.96253   0.20641   1.000
    C85     C    0.83465   0.59934   0.18290   1.000
    C86     C    0.80550   0.66057   0.17140   1.000
    C87     C    0.86546   0.74243   0.15956   1.000
    C88     C    0.95236   0.75972   0.16021   1.000
    C89     C    0.97578   0.69510   0.17271   1.000
    C90     C    0.75517   0.79181   0.14182   1.000
    C91     C    0.66546   0.84839   0.76475   1.000
    C92     C    0.69432   0.86601   0.85495   1.000
    C93     C    0.63406   0.79414   0.87657   1.000
    C94     C    0.54719   0.70786   0.80687   1.000
    C95     C    0.52406   0.69697   0.71903   1.000
    C96     C    0.74403   0.88669   0.03611   1.000
    N97     N    0.08207   0.38473   0.81641   1.000
    N98     N    0.41789   0.23424   0.30277   1.000
    N99     N    0.56747   0.18312   0.76567   1.000
    N100    N    0.93255   0.69802   0.61571   1.000
    N101    N    0.43256   0.81684   0.23432   1.000
    N102    N    0.06748   0.30195   0.38428   1.000
    N103    N    0.91797   0.61523   0.18358   1.000
    O104    O    0.15334   0.19137   0.85219   1.000
    O105    O    0.34755   0.19882   0.03872   1.000
    O106    O    0.34019   0.14986   0.80271   1.000
    O107    O    0.16052   0.96244   0.81010   1.000
    O108    O    0.65986   0.85013   0.19730   1.000
    O109    O    0.83952   0.03753   0.18990   1.000
    O110    O    0.84671   0.80859   0.14782   1.000
    O111    O    0.65249   0.80114   0.96128   1.000
loop_
    _geom_bond_atom_site_label_1
    _geom_bond_atom_site_label_2
    _geom_bond_distance
    _geom_bond_site_symmetry_2
    _ccdc_geom_bond_type
    H47    C96       1.10006      .   S
    C96    H46       1.10028      .   S
    C96    O111      1.43909  1_554   S
    O105   C57       1.35645      .   S
    O105   C60       1.43910  1_554   S
    H29    C78       1.10002      .   S
    H25    C74       1.08769      .   S
    H40    C90       1.10028      .   S
    H7     C56       1.08771      .   S
    H24    C73       1.08895      .   S
    H28    C78       1.10022      .   S
    C78    O108      1.43936      .   S
    C57    C56       1.40145      .   S
    C57    C58       1.40358      .   S
    C74    C73       1.38936      .   S
    C74    C75       1.40139      .   S
    C90    O110      1.43924      .   S
    C90    H41       1.10011      .   S
    C56    C55       1.38935      .   S
    O110   C87       1.35648      .   S
    C73    N101      1.34920      .   S
    H38    C88       1.09061  1_455   S
    C87    C88       1.40355      .   S
    C87    C86       1.40144      .   S
    C88    C89       1.38067      .   S
    C86    H37       1.08768      .   S
    C86    C85       1.38941      .   S
    C89    H39       1.08771  1_655   S
    C89    N103      1.35723      .   S
    H32    C82       1.09069      .   S
    H8     C58       1.09150      .   S
    C85    N103      1.34913      .   S
    C85    H36       1.08892      .   S
    O109   C84       1.43941  1_545   S
    O109   C81       1.35649      .   S
    C58    C59       1.38059      .   S
    O108   C75       1.35627      .   S
    C75    C76       1.40367      .   S
    C84    H35       1.10007      .   S
    C84    H34       1.10014      .   S
    N101   C77       1.35737      .   S
    C55    H6        1.08890      .   S
    C55    N98       1.34920      .   S
    C82    C81       1.40359      .   S
    C82    C83       1.38066      .   S
    C81    C80       1.31444  1_655   S
    C59    N98       1.35733      .   S
    C59    H9        1.08813      .   S
    C76    C77       1.38066      .   S
    C76    H26       1.09068      .   S
    H33    C83       1.08814      .   S
    C77    H27       1.08822      .   S
    C83    N102      1.35713  1_655   S
    C80    H31       1.20170      .   S
    C80    C79       1.39484      .   S
    N102   C79       1.34920      .   S
    C79    H30       1.08846      .   S
    H18    C67       1.08894      .   S
    C67    N100      1.34922      .   S
    C67    C68       1.38947      .   S
    N100   C71       1.35714  1_655   S
    H15    C65       1.08802      .   S
    H19    C68       1.08745      .   S
    H14    C64       1.09069      .   S
    C68    C69       1.40144  1_655   S
    H45    C95       1.08813      .   S
    C71    H21       1.08814      .   S
    C71    C70       1.38065      .   S
    N54    C95       1.35734      .   S
    N54    C91       1.34919      .   S
    C65    C64       1.38073      .   S
    C65    N99       1.35738      .   S
    C64    C63       1.40366      .   S
    C95    C94       1.38059      .   S
    H22    C72       1.08992      .   S
    C69    C70       1.40356      .   S
    C69    O107      1.35648      .   S
    H42    C91       1.08891      .   S
    C70    H20       1.09070      .   S
    C91    C92       1.38935      .   S
    N99    C61       1.34919      .   S
    H23    C72       1.10493      .   S
    C72    O107      1.44102  1_545   S
    H5     C53       1.10007      .   S
    C63    O106      1.35632      .   S
    C63    C62       1.40141      .   S
    O106   C66       1.43928      .   S
    C94    H44       1.09073      .   S
    C94    C93       1.40357      .   S
    H0     C48       1.08896      .   S
    N97    C48       1.34916      .   S
    N97    C52       1.35727      .   S
    C48    C49       1.38940      .   S
    H3     C52       1.08773  1_655   S
    H1     C49       1.08767      .   S
    C52    C51       1.38067      .   S
    C49    C50       1.40148      .   S
    C51    C50       1.40356      .   S
    C51    H2        1.09060  1_455   S
    C50    O104      1.35648      .   S
    C61    C62       1.38946      .   S
    C61    H12       1.08895      .   S
    O104   C53       1.43923      .   S
    C92    C93       1.40145      .   S
    C92    H43       1.08771      .   S
    C53    H4        1.10029      .   S
    C62    H13       1.08768      .   S
    C93    O111      1.35643      .   S
    C66    H16       1.10021      .   S
    C66    H17       1.10002      .   S
    H10    C60       1.10026      .   S
    C60    H11       1.10005      .   S
