# CIF file generated by openbabel 2.4.90, see http://openbabel.sf.net
data_I
_chemical_name_common ''
_cell_length_a 17.675
_cell_length_b 17.661
_cell_length_c 17.684
_cell_angle_alpha 90.659
_cell_angle_beta 119.543
_cell_angle_gamma 119.714
_space_group_name_H-M_alt 'P 1'
_space_group_name_Hall 'P 1'
loop_
    _symmetry_equiv_pos_as_xyz
    x,y,z
loop_
    _atom_site_label
    _atom_site_type_symbol
    _atom_site_fract_x
    _atom_site_fract_y
    _atom_site_fract_z
    _atom_site_occupancy
    Lv0     Lv   0.48255   0.41846   0.59700   1.000
    Lv1     Lv   0.25044   0.12563   0.87595   1.000
    Lv2     Lv   0.67898   0.06447   0.58180   1.000
    Lv3     Lv   0.74960   0.87433   0.12400   1.000
    Lv4     Lv   0.82126   0.40267   0.38572   1.000
    Lv5     Lv   0.01774   0.61469   0.93589   1.000
    Lv6     Lv   0.32106   0.93549   0.41818   1.000
    Lv7     Lv   0.98229   0.38526   0.06409   1.000
    Lv8     Lv   0.51749   0.58151   0.40297   1.000
    Lv9     Lv   0.17877   0.59728   0.61426   1.000
