# CIF file generated by openbabel 2.4.90, see http://openbabel.sf.net
data_I
_chemical_name_common ''
_cell_length_a 17.675
_cell_length_b 17.661
_cell_length_c 17.684
_cell_angle_alpha 90.659
_cell_angle_beta 119.543
_cell_angle_gamma 119.714
_space_group_name_H-M_alt 'P 1'
_space_group_name_Hall 'P 1'
loop_
    _symmetry_equiv_pos_as_xyz
    x,y,z
loop_
    _atom_site_label
    _atom_site_type_symbol
    _atom_site_fract_x
    _atom_site_fract_y
    _atom_site_fract_z
    _atom_site_occupancy
    N0      N    0.48255   0.41846   0.59700   1.000
    N1      N    0.25044   0.12563   0.87595   1.000
    N2      N    0.67898   0.06447   0.58180   1.000
    N3      N    0.74960   0.87433   0.12400   1.000
    N4      N    0.82126   0.40267   0.38572   1.000
    N5      N    0.01774   0.61469   0.93589   1.000
    N6      N    0.32106   0.93549   0.41818   1.000
    N7      N    0.98229   0.38526   0.06409   1.000
    N8      N    0.51749   0.58151   0.40297   1.000
    N9      N    0.17877   0.59728   0.61426   1.000
    Zr10    Zr   0.06319   0.55563   0.75774   1.000
    O11     O    0.08202   0.45782   0.78723   1.000
    O12     O    0.96001   0.49106   0.61284   1.000
    Zr13    Zr   0.79734   0.24213   0.80506   1.000
    O14     O    0.87816   0.38721   0.84705   1.000
    O15     O    0.67009   0.21276   0.79475   1.000
    Zr16    Zr   0.56353   0.80554   0.50759   1.000
    O17     O    0.46020   0.84725   0.46880   1.000
    O18     O    0.58216   0.79488   0.62412   1.000
    Zr19    Zr   0.20270   0.75782   0.19491   1.000
    O20     O    0.32994   0.78719   0.20523   1.000
    O21     O    0.12187   0.61274   0.15293   1.000
    Zr22    Zr   0.29729   0.49222   0.55512   1.000
    O23     O    0.37807   0.53097   0.49088   1.000
    O24     O    0.16983   0.37536   0.45720   1.000
    Zr25    Zr   0.93684   0.44433   0.24225   1.000
    O26     O    0.04003   0.50889   0.38715   1.000
    O27     O    0.91801   0.54214   0.21277   1.000
    Zr28    Zr   0.43649   0.19442   0.49237   1.000
    O29     O    0.53983   0.15271   0.53116   1.000
    O30     O    0.41787   0.20508   0.37585   1.000
    Zr31    Zr   0.70274   0.50774   0.44485   1.000
    O32     O    0.62196   0.46899   0.50910   1.000
    O33     O    0.83002   0.62460   0.54277   1.000
    O34     O    0.44255   0.26995   0.51830   1.000
    O35     O    0.55748   0.73001   0.48166   1.000
    O36     O    0.74804   0.17273   0.72979   1.000
    O37     O    0.24797   0.51827   0.57518   1.000
    O38     O    0.75206   0.48168   0.42480   1.000
    O39     O    0.94270   0.42428   0.17274   1.000
    O40     O    0.05733   0.57568   0.82725   1.000
    O41     O    0.25199   0.82722   0.27019   1.000
loop_
    _geom_bond_atom_site_label_1
    _geom_bond_atom_site_label_2
    _geom_bond_distance
    _geom_bond_site_symmetry_2
    _ccdc_geom_bond_type
    Zr10   O11       1.94582      .   S
    N1     O11       7.65897      .   S
    Zr10   O12       2.11072  1_455   S
    N4     O12       3.30596      .   S
    Zr13   O14       2.10685      .   S
    N5     O14       3.30186  1_455   S
    Zr13   O15       1.94880      .   S
    N1     O15       7.66056      .   S
    Zr16   O17       2.11166      .   S
    N6     O17       3.30735      .   S
    Zr16   O18       1.94732      .   S
    N3     O18       7.65956  1_554   S
    Zr19   O20       1.94870      .   S
    N3     O20       7.66103      .   S
    Zr19   O21       2.10687      .   S
    N7     O21       3.30186  1_655   S
    Zr22   O23       2.10866      .   S
    N8     O23       3.30373      .   S
    Zr22   O24       1.94802      .   S
    N3     O24      13.80097  1_655   S
    Zr25   O26       2.11069  1_655   S
    N9     O26       3.30587      .   S
    Zr25   O27       1.94581      .   S
    N3     O27       7.65898      .   S
    Zr28   O29       2.11169      .   S
    N2     O29       3.30736      .   S
    Zr28   O30       1.94718      .   S
    N1     O30       7.65990  1_556   S
    Zr31   O32       2.10869      .   S
    N0     O32       3.30359      .   S
    Zr31   O33       1.94740      .   S
    N1     O33      13.80306  1_455   S
    Zr28   O34       1.34046      .   S
    N0     O34       2.53451      .   S
    N8     O35       2.53438      .   S
    Zr16   O35       1.34043      .   S
    Zr13   O36       1.33911      .   S
    N2     O36       2.53289      .   S
    Zr22   O37       1.34039      .   S
    N9     O37       2.53443      .   S
    Zr31   O38       1.34032      .   S
    N4     O38       2.53438      .   S
    Zr25   O39       1.34133      .   S
    N7     O39       2.53552      .   S
    Zr10   O40       1.34127      .   S
    N5     O40       2.53540      .   S
    N6     O41       2.53295      .   S
    Zr19   O41       1.33920      .   S
