# CIF file generated by openbabel 2.4.90, see http://openbabel.sf.net
data_I
_chemical_name_common ''
_cell_length_a 17.675
_cell_length_b 17.661
_cell_length_c 17.684
_cell_angle_alpha 90.659
_cell_angle_beta 119.543
_cell_angle_gamma 119.714
_space_group_name_H-M_alt 'P 1'
_space_group_name_Hall 'P 1'
loop_
    _symmetry_equiv_pos_as_xyz
    x,y,z
loop_
    _atom_site_label
    _atom_site_type_symbol
    _atom_site_fract_x
    _atom_site_fract_y
    _atom_site_fract_z
    _atom_site_occupancy
    Zr0     Zr   0.03166   0.46871   0.77980   1.000
    Zr1     Zr   0.46800   0.24795   0.43690   1.000
    Zr2     Zr   0.68789   0.21961   0.75156   1.000
    Zr3     Zr   0.81187   0.56342   0.53162   1.000
    Zr4     Zr   0.31214   0.78035   0.24843   1.000
    Zr5     Zr   0.18816   0.43655   0.46836   1.000
    Zr6     Zr   0.96837   0.53124   0.22019   1.000
    Zr7     Zr   0.53203   0.75201   0.56302   1.000
    Zr8     Zr   0.86024   0.39863   0.81551   1.000
    Zr9     Zr   0.18647   0.66568   0.88601   1.000
    Zr10    Zr   0.63977   0.45531   0.53845   1.000
    Zr11    Zr   0.31337   0.19965   0.47902   1.000
    Zr12    Zr   0.58266   0.18401   0.54480   1.000
    Zr13    Zr   0.77908   0.11405   0.79994   1.000
    Zr14    Zr   0.91696   0.46168   0.60128   1.000
    Zr15    Zr   0.72120   0.52093   0.33513   1.000
    Zr16    Zr   0.41735   0.81592   0.45510   1.000
    Zr17    Zr   0.22096   0.88591   0.20004   1.000
    Zr18    Zr   0.08308   0.53829   0.39871   1.000
    Zr19    Zr   0.27884   0.47903   0.66485   1.000
    Zr20    Zr   0.13980   0.60132   0.18448   1.000
    Zr21    Zr   0.81356   0.33428   0.11397   1.000
    Zr22    Zr   0.36027   0.54465   0.46155   1.000
    Zr23    Zr   0.68666   0.80031   0.52090   1.000
    Zr24    Zr   0.87549   0.36204   0.76775   1.000
    Zr25    Zr   0.78286   0.35548   0.82375   1.000
    Zr26    Zr   0.17235   0.60237   0.83261   1.000
    Zr27    Zr   0.26079   0.74977   0.92238   1.000
    Zr28    Zr   0.62443   0.39213   0.48668   1.000
    Zr29    Zr   0.71713   0.54100   0.57255   1.000
    Zr30    Zr   0.32727   0.16025   0.42973   1.000
    Zr31    Zr   0.23916   0.16174   0.48883   1.000
    Zr32    Zr   0.59359   0.23160   0.60784   1.000
    Zr33    Zr   0.53141   0.17573   0.45947   1.000
    Zr34    Zr   0.76852   0.16688   0.83910   1.000
    Zr35    Zr   0.82727   0.07823   0.83780   1.000
    Zr36    Zr   0.90581   0.51361   0.63782   1.000
    Zr37    Zr   0.96831   0.42755   0.64431   1.000
    Zr38    Zr   0.73142   0.57048   0.39830   1.000
    Zr39    Zr   0.67336   0.51093   0.25124   1.000
    Zr40    Zr   0.40643   0.76834   0.39214   1.000
    Zr41    Zr   0.46862   0.82422   0.54052   1.000
    Zr42    Zr   0.23151   0.83308   0.16085   1.000
    Zr43    Zr   0.17277   0.92173   0.16213   1.000
    Zr44    Zr   0.09423   0.48636   0.36217   1.000
    Zr45    Zr   0.03172   0.57241   0.35568   1.000
    Zr46    Zr   0.26861   0.42948   0.60160   1.000
    Zr47    Zr   0.32666   0.48902   0.74874   1.000
    Zr48    Zr   0.12454   0.63791   0.23223   1.000
    Zr49    Zr   0.21716   0.64448   0.17623   1.000
    Zr50    Zr   0.82769   0.39758   0.16740   1.000
    Zr51    Zr   0.73925   0.25018   0.07761   1.000
    Zr52    Zr   0.37561   0.60783   0.51332   1.000
    Zr53    Zr   0.28290   0.45896   0.42743   1.000
    Zr54    Zr   0.67276   0.83972   0.57027   1.000
    Zr55    Zr   0.76088   0.83823   0.51116   1.000
    O56     O    0.77640   0.29223   0.09579   1.000
    O57     O    0.82062   0.36593   0.14069   1.000
    O58     O    0.22623   0.85949   0.18045   1.000
    O59     O    0.27183   0.80671   0.20464   1.000
    O60     O    0.19687   0.90382   0.18109   1.000
    O61     O    0.89803   0.46441   0.19380   1.000
    O62     O    0.17848   0.62290   0.18036   1.000
    O63     O    0.26465   0.71241   0.21233   1.000
    O64     O    0.13217   0.61962   0.20836   1.000
    O65     O    0.00005   0.55183   0.28794   1.000
    O66     O    0.69728   0.51593   0.29319   1.000
    O67     O    0.72631   0.54570   0.36672   1.000
    O68     O    0.05740   0.55535   0.37720   1.000
    O69     O    0.08866   0.51232   0.38044   1.000
    O70     O    0.41189   0.79213   0.42362   1.000
    O71     O    0.77165   0.56695   0.46496   1.000
    O72     O    0.32158   0.50180   0.44449   1.000
    O73     O    0.23553   0.44776   0.44790   1.000
    O74     O    0.39764   0.20410   0.43332   1.000
    O75     O    0.32032   0.17995   0.45438   1.000
    O76     O    0.49970   0.21184   0.44819   1.000
    O77     O    0.44298   0.82007   0.49781   1.000
    O78     O    0.55703   0.17987   0.50214   1.000
    O79     O    0.36794   0.57624   0.48744   1.000
    O80     O    0.22838   0.43302   0.53498   1.000
    O81     O    0.27626   0.18070   0.48393   1.000
    O82     O    0.63210   0.42372   0.51257   1.000
    O83     O    0.72377   0.81927   0.51603   1.000
    O84     O    0.67971   0.82001   0.54559   1.000
    O85     O    0.76450   0.55221   0.55209   1.000
    O86     O    0.67845   0.49815   0.55550   1.000
    O87     O    0.50033   0.78812   0.55177   1.000
    O88     O    0.58812   0.20781   0.57632   1.000
    O89     O    0.60240   0.79586   0.56665   1.000
    O90     O    0.91138   0.48765   0.61955   1.000
    O91     O    0.94263   0.44462   0.62280   1.000
    O92     O    0.27373   0.45426   0.63323   1.000
    O93     O    0.99999   0.44813   0.71206   1.000
    O94     O    0.30275   0.48403   0.70680   1.000
    O95     O    0.73538   0.28754   0.78766   1.000
    O96     O    0.72820   0.19324   0.79533   1.000
    O97     O    0.86786   0.38034   0.79163   1.000
    O98     O    0.10201   0.53554   0.80621   1.000
    O99     O    0.80317   0.09614   0.81887   1.000
    O100    O    0.77380   0.14046   0.81952   1.000
    O101    O    0.82155   0.37706   0.81963   1.000
    O102    O    0.17941   0.63403   0.85931   1.000
    O103    O    0.22363   0.70773   0.90420   1.000
    N104    N    0.48255   0.41846   0.59700   1.000
    O105    O    0.41947   0.33499   0.55101   1.000
    O106    O    0.54119   0.43025   0.57335   1.000
    O107    O    0.47777   0.35596   0.53746   1.000
    N108    N    0.25044   0.12563   0.87595   1.000
    O109    O    0.39925   0.21574   0.25932   1.000
    O110    O    0.95731   0.74146   0.64069   1.000
    O111    O    0.54284   0.18340   0.78445   1.000
    O112    O    0.10086   0.36001   0.81671   1.000
    N113    N    0.67898   0.06447   0.58180   1.000
    O114    O    0.71615   0.08481   0.66501   1.000
    O115    O    0.68135   0.12186   0.64403   1.000
    O116    O    0.64316   0.11099   0.56995   1.000
    N117    N    0.74960   0.87433   0.12400   1.000
    O118    O    0.89917   0.63995   0.18329   1.000
    O119    O    0.45719   0.81656   0.21554   1.000
    O120    O    0.04236   0.25850   0.35928   1.000
    O121    O    0.60078   0.78422   0.74066   1.000
    N122    N    0.82126   0.40267   0.38572   1.000
    O123    O    0.78409   0.44879   0.36886   1.000
    O124    O    0.81868   0.46247   0.44061   1.000
    O125    O    0.85682   0.42650   0.46794   1.000
    N126    N    0.01774   0.61469   0.93589   1.000
    O127    O    0.08064   0.63170   0.91541   1.000
    O128    O    0.02228   0.55977   0.87811   1.000
    O129    O    0.95899   0.53229   0.88904   1.000
    N130    N    0.32106   0.93549   0.41818   1.000
    O131    O    0.28389   0.91515   0.33497   1.000
    O132    O    0.31869   0.87810   0.35596   1.000
    O133    O    0.35686   0.88896   0.43001   1.000
    N134    N    0.98229   0.38526   0.06409   1.000
    O135    O    0.04104   0.46766   0.11095   1.000
    O136    O    0.97775   0.44018   0.12188   1.000
    O137    O    0.91938   0.36826   0.08457   1.000
    N138    N    0.51749   0.58151   0.40297   1.000
    O139    O    0.52227   0.64401   0.46249   1.000
    O140    O    0.58057   0.66497   0.44896   1.000
    O141    O    0.45885   0.56971   0.42663   1.000
    N142    N    0.17877   0.59728   0.61426   1.000
    O143    O    0.21594   0.55117   0.63112   1.000
    O144    O    0.18134   0.53749   0.55937   1.000
    O145    O    0.14321   0.57346   0.53205   1.000
loop_
    _geom_bond_atom_site_label_1
    _geom_bond_atom_site_label_2
    _geom_bond_distance
    _geom_bond_site_symmetry_2
    _ccdc_geom_bond_type
    Zr51   O56       0.62365      .   S
    Zr21   O56       0.62365      .   S
    Zr21   O57       0.64637      .   S
    Zr50   O57       0.64637      .   S
    Zr42   O58       0.64631      .   S
    Zr17   O58       0.64631      .   S
    Zr42   O59       1.05701      .   S
    Zr4    O59       1.05701      .   S
    Zr43   O60       0.62369      .   S
    Zr17   O60       0.62369      .   S
    Zr50   O61       1.05691      .   S
    Zr6    O61       1.05691      .   S
    Zr49   O62       0.63993      .   S
    Zr20   O62       0.63993      .   S
    Zr49   O63       1.00362      .   S
    Zr4    O63       1.00362      .   S
    Zr20   O64       0.63016      .   S
    Zr48   O64       0.63016      .   S
    Zr6    O65       1.00379  1_655   S
    Zr45   O65       1.00379      .   S
    Zr39   O66       0.62367      .   S
    Zr15   O66       0.62367      .   S
    Zr15   O67       0.64575      .   S
    Zr38   O67       0.64575      .   S
    Zr45   O68       0.63989      .   S
    Zr18   O68       0.63989      .   S
    Zr44   O69       0.63021      .   S
    Zr18   O69       0.63021      .   S
    Zr40   O70       0.63024      .   S
    Zr16   O70       0.63024      .   S
    Zr38   O71       1.05742      .   S
    Zr3    O71       1.05742      .   S
    Zr53   O72       0.63991      .   S
    Zr22   O72       0.63991      .   S
    Zr53   O73       1.00367      .   S
    Zr5    O73       1.00367      .   S
    Zr30   O74       1.05677      .   S
    Zr1    O74       1.05677      .   S
    Zr30   O75       0.64639      .   S
    Zr11   O75       0.64639      .   S
    Zr1    O76       1.00369      .   S
    Zr33   O76       1.00369      .   S
    Zr16   O77       0.63989      .   S
    Zr41   O77       0.63989      .   S
    Zr33   O78       0.63925      .   S
    Zr12   O78       0.63925      .   S
    Zr22   O79       0.63018      .   S
    Zr52   O79       0.63018      .   S
    Zr5    O80       1.05689      .   S
    Zr46   O80       1.05689      .   S
    Zr11   O81       0.62360      .   S
    Zr31   O81       0.62360      .   S
    Zr28   O82       0.63020      .   S
    Zr10   O82       0.63020      .   S
    Zr55   O83       0.62318      .   S
    Zr23   O83       0.62318      .   S
    Zr23   O84       0.64694      .   S
    Zr54   O84       0.64694      .   S
    Zr3    O85       1.00366      .   S
    Zr29   O85       1.00366      .   S
    Zr10   O86       0.63991      .   S
    Zr29   O86       0.63991      .   S
    Zr41   O87       1.00371      .   S
    Zr7    O87       1.00371      .   S
    Zr12   O88       0.63080      .   S
    Zr32   O88       0.63080      .   S
    Zr7    O89       1.05640      .   S
    Zr54   O89       1.05640      .   S
    Zr14   O90       0.63020      .   S
    Zr36   O90       0.63020      .   S
    Zr14   O91       0.63989      .   S
    Zr37   O91       0.63989      .   S
    Zr46   O92       0.64629      .   S
    Zr19   O92       0.64629      .   S
    Zr37   O93       1.00379      .   S
    Zr0    O93       1.00379  1_455   S
    Zr19   O94       0.62370      .   S
    Zr47   O94       0.62370      .   S
    Zr2    O95       1.00361      .   S
    Zr25   O95       1.00361      .   S
    Zr2    O96       1.05688      .   S
    Zr34   O96       1.05688      .   S
    Zr24   O97       0.63016      .   S
    Zr8    O97       0.63016      .   S
    Zr0    O98       1.05691      .   S
    Zr26   O98       1.05691      .   S
    Zr13   O99       0.62360      .   S
    Zr35   O99       0.62360      .   S
    Zr13   O100      0.64616      .   S
    Zr34   O100      0.64616      .   S
    Zr8    O101      0.63995      .   S
    Zr25   O101      0.63995      .   S
    Zr26   O102      0.64633      .   S
    Zr9    O102      0.64633      .   S
    Zr9    O103      0.62365      .   S
    Zr27   O103      0.62365      .   S
    N104   O105      1.23550      .   S
    Zr11   O105      1.99565      .   S
    N104   O106      1.22800      .   S
    Zr10   O106      1.97868      .   S
    N104   O107      1.45853      .   S
    Zr1    O107      2.47455      .   S
    N108   O109      5.78187  1_556   S
    Zr1    O109      2.67815      .   S
    N108   O110      5.78203  1_445   S
    Zr3    O110      2.67836      .   S
    N108   O111      5.78163      .   S
    Zr2    O111      2.67832      .   S
    N108   O112      5.78264      .   S
    Zr0    O112      2.67899      .   S
    N113   O114      1.23551      .   S
    Zr13   O114      1.99559      .   S
    N113   O115      1.45833      .   S
    Zr2    O115      2.47374      .   S
    N113   O116      1.22812      .   S
    Zr12   O116      1.97888      .   S
    N117   O118      5.78260      .   S
    Zr6    O118      2.67903      .   S
    N117   O119      5.78229      .   S
    Zr4    O119      2.67826      .   S
    N117   O120      5.78241  1_665   S
    Zr5    O120      2.67858      .   S
    N117   O121      5.78139  1_554   S
    Zr7    O121      2.67909      .   S
    N122   O123      1.23551      .   S
    Zr15   O123      1.99565      .   S
    N122   O124      1.45842      .   S
    Zr3    O124      2.47402      .   S
    N122   O125      1.22815      .   S
    Zr14   O125      1.97892      .   S
    N126   O127      1.23537      .   S
    Zr9    O127      1.99551      .   S
    N126   O128      1.45835      .   S
    Zr0    O128      2.47389      .   S
    N126   O129      1.22815  1_455   S
    Zr8    O129      1.97892      .   S
    N130   O131      1.23549      .   S
    Zr17   O131      1.99562      .   S
    N130   O132      1.45829      .   S
    Zr4    O132      2.47369      .   S
    N130   O133      1.22816      .   S
    Zr16   O133      1.97892      .   S
    N134   O135      1.22817  1_655   S
    Zr20   O135      1.97893      .   S
    N134   O136      1.45839      .   S
    Zr6    O136      2.47396      .   S
    N134   O137      1.23544      .   S
    Zr21   O137      1.99556      .   S
    N138   O139      1.45824      .   S
    Zr7    O139      2.47421      .   S
    N138   O140      1.23546      .   S
    Zr23   O140      1.99550      .   S
    N138   O141      1.22814      .   S
    Zr22   O141      1.97884      .   S
    N142   O143      1.23551      .   S
    Zr19   O143      1.99565      .   S
    N142   O144      1.45837      .   S
    Zr5    O144      2.47399      .   S
    N142   O145      1.22809      .   S
    Zr18   O145      1.97888      .   S
