# CIF file generated by openbabel 2.4.90, see http://openbabel.sf.net
data_I
_chemical_name_common ''
_cell_length_a 15.44
_cell_length_b 17.79
_cell_length_c 18.318
_cell_angle_alpha 112.232
_cell_angle_beta 90.004
_cell_angle_gamma 89.996
_space_group_name_H-M_alt 'P 1'
_space_group_name_Hall 'P 1'
loop_
    _symmetry_equiv_pos_as_xyz
    x,y,z
loop_
    _atom_site_label
    _atom_site_type_symbol
    _atom_site_fract_x
    _atom_site_fract_y
    _atom_site_fract_z
    _atom_site_occupancy
    H0      H    0.50132   0.39691   0.69736   1.000
    H1      H    0.50151   0.60614   0.97268   1.000
    H2      H    0.99427   0.10688   0.13700   1.000
    H3      H    0.00000   0.10308   0.80266   1.000
    H4      H    0.00000   0.89387   0.52734   1.000
    H5      H    0.49429   0.39310   0.36298   1.000
    H6      H    0.49868   0.60309   0.30260   1.000
    H7      H    0.49850   0.39386   0.02733   1.000
    H8      H    0.00573   0.89312   0.86300   1.000
    H9      H    0.99870   0.89692   0.19734   1.000
    H10     H    0.99849   0.10613   0.47267   1.000
    H11     H    0.50574   0.60689   0.63701   1.000
    C12     C    0.83365   0.09558   0.64691   1.000
    C13     C    0.62844   0.36920   0.84742   1.000
    C14     C    0.13827   0.87937   0.02021   1.000
    C15     C    0.36496   0.62653   0.81597   1.000
    C16     C    0.65890   0.60627   0.81575   1.000
    C17     C    0.84122   0.89461   0.01693   1.000
    O18     O    0.56619   0.60876   0.50644   1.000
    O19     O    0.37750   0.44364   0.82143   1.000
    O20     O    0.12202   0.93766   0.65315   1.000
    O21     O    0.34091   0.59255   0.40867   1.000
    C22     C    0.33363   0.40441   0.85300   1.000
    C23     C    0.12847   0.13075   0.65260   1.000
    C24     C    0.63831   0.62062   0.47980   1.000
    C25     C    0.86505   0.87344   0.68403   1.000
    C26     C    0.15888   0.89374   0.68426   1.000
    C27     C    0.34120   0.60540   0.48303   1.000
    C28     C    0.16636   0.90442   0.35309   1.000
    C29     C    0.37155   0.63079   0.15258   1.000
    C30     C    0.86174   0.12063   0.97900   1.000
    C31     C    0.63504   0.37347   0.18404   1.000
    C32     C    0.34111   0.39373   0.18425   1.000
    C33     C    0.15879   0.10539   0.98300   1.000
    C34     C    0.66638   0.59560   0.14690   1.000
    C35     C    0.87156   0.86924   0.34740   1.000
    C36     C    0.36169   0.37939   0.52020   1.000
    C37     C    0.13495   0.12657   0.31598   1.000
    C38     C    0.84113   0.10625   0.31574   1.000
    C39     C    0.65881   0.39459   0.51696   1.000
    O40     O    0.50062   0.45549   0.71116   1.000
    O41     O    0.50001   0.54726   0.95647   1.000
    O42     O    0.99693   0.04819   0.12198   1.000
    O43     O    0.33748   0.58903   0.74476   1.000
    O44     O    0.16648   0.91892   0.09076   1.000
    O45     O    0.83267   0.08224   0.57230   1.000
    O46     O    0.56275   0.39061   0.81889   1.000
    O47     O    0.43585   0.61272   0.84318   1.000
    O48     O    0.87833   0.93888   0.98647   1.000
    O49     O    0.65634   0.40419   0.91878   1.000
    O50     O    0.06615   0.89126   0.99358   1.000
    O51     O    0.87753   0.05634   0.67857   1.000
    O52     O    0.62202   0.56237   0.84686   1.000
    O53     O    0.84092   0.90746   0.09130   1.000
    O54     O    0.65949   0.59248   0.74126   1.000
    O55     O    0.00000   0.04450   0.78885   1.000
    O56     O    0.00000   0.95275   0.54353   1.000
    O57     O    0.49693   0.45180   0.37801   1.000
    O58     O    0.83755   0.91096   0.75522   1.000
    O59     O    0.66650   0.58110   0.40924   1.000
    O60     O    0.33265   0.41776   0.92764   1.000
    O61     O    0.06274   0.10939   0.68110   1.000
    O62     O    0.93593   0.88728   0.65681   1.000
    O63     O    0.37832   0.56112   0.51350   1.000
    O64     O    0.15641   0.09571   0.58126   1.000
    O65     O    0.15948   0.90751   0.75874   1.000
    O66     O    0.49938   0.54451   0.28884   1.000
    O67     O    0.50000   0.45274   0.04350   1.000
    O68     O    0.00308   0.95182   0.87802   1.000
    O69     O    0.66252   0.41097   0.25520   1.000
    O70     O    0.83353   0.08110   0.90924   1.000
    O71     O    0.16734   0.91775   0.42763   1.000
    O72     O    0.43726   0.60940   0.18111   1.000
    O73     O    0.56415   0.38729   0.15682   1.000
    O74     O    0.12168   0.06112   0.01352   1.000
    O75     O    0.34364   0.59578   0.08122   1.000
    O76     O    0.93386   0.10875   0.00642   1.000
    O77     O    0.12249   0.94367   0.32143   1.000
    O78     O    0.37798   0.43764   0.15314   1.000
    O79     O    0.15909   0.09253   0.90869   1.000
    O80     O    0.34052   0.40751   0.25873   1.000
    O81     O    0.99938   0.95550   0.21115   1.000
    O82     O    0.99999   0.04725   0.45647   1.000
    O83     O    0.50309   0.54820   0.62190   1.000
    O84     O    0.16245   0.08906   0.24478   1.000
    O85     O    0.33351   0.41892   0.59076   1.000
    O86     O    0.66736   0.58224   0.07235   1.000
    O87     O    0.93727   0.89062   0.31888   1.000
    O88     O    0.06407   0.11273   0.34319   1.000
    O89     O    0.62168   0.43887   0.48649   1.000
    O90     O    0.84363   0.90427   0.41875   1.000
    O91     O    0.43382   0.39124   0.49356   1.000
    O92     O    0.62250   0.55637   0.17857   1.000
    O93     O    0.87800   0.06235   0.34685   1.000
    O94     O    0.65910   0.40743   0.59132   1.000
    O95     O    0.84053   0.09247   0.24120   1.000
loop_
    _geom_bond_atom_site_label_1
    _geom_bond_atom_site_label_2
    _geom_bond_distance
    _geom_bond_site_symmetry_2
    _ccdc_geom_bond_type
    O76    C30       1.27175  1_554   S
    O74    C33       1.26282  1_554   S
    C17    O53       1.29322      .   S
    C17    O48       1.26208  1_554   S
    C14    O44       1.29104      .   S
    C14    O50       1.26518  1_554   S
    H7     O67       0.97509      .   S
    O86    C34       1.29461      .   S
    O75    C29       1.29083      .   S
    O42    H2        0.97484      .   S
    C34    O92       1.26056      .   S
    C29    O72       1.26401      .   S
    O78    C32       1.26327      .   S
    O73    C31       1.26485      .   S
    C31    O69       1.29077      .   S
    C32    O80       1.29170      .   S
    H9     O81       0.97502      .   S
    O95    C38       1.29276      .   S
    O84    C37       1.29156      .   S
    O66    H6        0.97514      .   S
    C38    O93       1.26321      .   S
    C37    O88       1.26480      .   S
    O87    C35       1.26400      .   S
    O77    C28       1.26056      .   S
    C35    O90       1.29082      .   S
    C28    O71       1.29452      .   S
    H5     O57       0.97482      .   S
    O21    C27       1.29308      .   S
    O59    C24       1.29102      .   S
    O82    H10       0.97503      .   S
    C24    O18       1.26517      .   S
    C27    O63       1.26227      .   S
    O89    C39       1.26225      .   S
    O91    C36       1.26519      .   S
    C39    O94       1.29309      .   S
    C36    O85       1.29102      .   S
    H4     O56       0.97477      .   S
    O45    C12       1.29576      .   S
    O64    C23       1.29078      .   S
    O83    H11       0.97465      .   S
    C12    O51       1.26050      .   S
    C23    O61       1.26385      .   S
    O20    C26       1.26330      .   S
    O62    C25       1.26488      .   S
    C25    O58       1.29139      .   S
    C26    O65       1.29171      .   S
    H0     O40       0.97501      .   S
    O54    C16       1.29183      .   S
    O43    C15       1.29150      .   S
    O55    H3        0.97496      .   S
    C16    O52       1.26317      .   S
    C15    O47       1.26477      .   S
    O46    C13       1.26396      .   S
    O19    C22       1.25940      .   S
    C13    O49       1.29072      .   S
    C22    O60       1.29626      .   S
    H8     O68       0.97483      .   S
    O79    C33       1.29212      .   S
    O70    C30       1.27950      .   S
    O41    H1        0.97501      .   S
