# CIF file generated by openbabel 2.4.90, see http://openbabel.sf.net
data_I
_chemical_name_common ''
_cell_length_a 18.577
_cell_length_b 18.583
_cell_length_c 18.583
_cell_angle_alpha 90.001
_cell_angle_beta 90
_cell_angle_gamma 90
_space_group_name_H-M_alt 'P 1'
_space_group_name_Hall 'P 1'
loop_
    _symmetry_equiv_pos_as_xyz
    x,y,z
loop_
    _atom_site_label
    _atom_site_type_symbol
    _atom_site_fract_x
    _atom_site_fract_y
    _atom_site_fract_z
    _atom_site_occupancy
    Zr0     Zr   0.00000   0.62432   0.50001   1.000
    Zr1     Zr   0.00001   0.37563   0.49997   1.000
    Zr2     Zr   0.50002   0.00002   0.62435   1.000
    Zr3     Zr   0.50002   0.99997   0.37558   1.000
    Zr4     Zr   0.62436   0.49996   0.99998   1.000
    Zr5     Zr   0.37567   0.50001   0.00000   1.000
    Zr6     Zr   0.62433   0.99997   0.49997   1.000
    Zr7     Zr   0.37573   0.00001   0.49999   1.000
    Zr8     Zr   0.00002   0.49997   0.37573   1.000
    Zr9     Zr   0.00001   0.49999   0.62424   1.000
    Zr10    Zr   0.50001   0.62433   0.00000   1.000
    Zr11    Zr   0.50000   0.37567   0.99998   1.000
    N12     N    0.71433   0.28565   0.28564   1.000
    O13     O    0.83967   0.33045   0.37451   1.000
    O14     O    0.62547   0.16030   0.33042   1.000
    O15     O    0.66954   0.37450   0.16030   1.000
    O16     O    0.66952   0.16031   0.37450   1.000
    O17     O    0.83968   0.37451   0.33048   1.000
    O18     O    0.62547   0.33046   0.16029   1.000
    N19     N    0.28567   0.28567   0.71431   1.000
    O20     O    0.16033   0.33046   0.62544   1.000
    O21     O    0.37455   0.16034   0.66952   1.000
    O22     O    0.33047   0.37455   0.83966   1.000
    O23     O    0.33050   0.16034   0.62545   1.000
    O24     O    0.16034   0.37454   0.66947   1.000
    O25     O    0.37452   0.33047   0.83967   1.000
    N26     N    0.71433   0.71429   0.28565   1.000
    O27     O    0.66951   0.83963   0.37451   1.000
    O28     O    0.83966   0.62542   0.33050   1.000
    O29     O    0.62547   0.66949   0.16031   1.000
    O30     O    0.83967   0.66949   0.37453   1.000
    O31     O    0.62547   0.83964   0.33042   1.000
    O32     O    0.66953   0.62542   0.16031   1.000
    N33     N    0.28570   0.28566   0.28565   1.000
    O34     O    0.33052   0.16033   0.37452   1.000
    O35     O    0.16036   0.37452   0.33049   1.000
    O36     O    0.37455   0.33047   0.16031   1.000
    O37     O    0.16035   0.33046   0.37452   1.000
    O38     O    0.37456   0.16030   0.33042   1.000
    O39     O    0.33049   0.37453   0.16031   1.000
    N40     N    0.71433   0.28566   0.71427   1.000
    O41     O    0.66953   0.16031   0.62542   1.000
    O42     O    0.83967   0.37453   0.66945   1.000
    O43     O    0.62546   0.33048   0.83962   1.000
    O44     O    0.83967   0.33046   0.62541   1.000
    O45     O    0.62548   0.16032   0.66949   1.000
    O46     O    0.66953   0.37452   0.83963   1.000
    N47     N    0.28567   0.71436   0.71434   1.000
    O48     O    0.33050   0.83969   0.62547   1.000
    O49     O    0.16034   0.62547   0.66950   1.000
    O50     O    0.37453   0.66955   0.83968   1.000
    O51     O    0.16033   0.66953   0.62547   1.000
    O52     O    0.37454   0.83971   0.66955   1.000
    O53     O    0.33048   0.62549   0.83967   1.000
    N54     N    0.71431   0.71431   0.71429   1.000
    O55     O    0.83966   0.66951   0.62544   1.000
    O56     O    0.62546   0.83967   0.66951   1.000
    O57     O    0.66953   0.62544   0.83964   1.000
    O58     O    0.66951   0.83965   0.62543   1.000
    O59     O    0.83966   0.62545   0.66947   1.000
    O60     O    0.62545   0.66951   0.83965   1.000
    N61     N    0.28568   0.71433   0.28567   1.000
    O62     O    0.16033   0.66952   0.37454   1.000
    O63     O    0.37455   0.83967   0.33044   1.000
    O64     O    0.33048   0.62547   0.16033   1.000
    O65     O    0.33051   0.83967   0.37453   1.000
    O66     O    0.16034   0.62545   0.33050   1.000
    O67     O    0.37454   0.66953   0.16033   1.000
loop_
    _geom_bond_atom_site_label_1
    _geom_bond_atom_site_label_2
    _geom_bond_distance
    _geom_bond_site_symmetry_2
    _ccdc_geom_bond_type
    N12    O13       2.97367      .   S
    Zr1    O13       3.87468  1_455   S
    N12    O14       2.97376      .   S
    Zr3    O14       3.87450  1_565   S
    N12    O15       2.97388      .   S
    Zr4    O15       3.87495  1_556   S
    N12    O16       2.97413      .   S
    Zr6    O16       3.87537  1_565   S
    N12    O17       2.97381      .   S
    Zr8    O17       3.87495  1_455   S
    N12    O18       2.97386      .   S
    Zr11   O18       3.87477  1_556   S
    N19    O20       2.97353      .   S
    Zr1    O20       3.87438      .   S
    N19    O21       2.97380      .   S
    Zr2    O21       3.87471      .   S
    N19    O22       2.97419      .   S
    Zr5    O22       3.87543  1_554   S
    N19    O23       2.97405      .   S
    Zr7    O23       3.87532      .   S
    N19    O24       2.97360      .   S
    Zr9    O24       3.87458      .   S
    N19    O25       2.97386      .   S
    Zr11   O25       3.87474      .   S
    N26    O27       2.97408      .   S
    Zr6    O27       3.87537      .   S
    N26    O28       2.97381      .   S
    Zr8    O28       3.87494  1_455   S
    N26    O29       2.97365      .   S
    Zr10   O29       3.87447      .   S
    N26    O30       2.97372      .   S
    Zr0    O30       3.87473  1_455   S
    N26    O31       2.97375      .   S
    Zr3    O31       3.87458      .   S
    N26    O32       2.97397      .   S
    Zr4    O32       3.87510  1_556   S
    N33    O34       2.97406      .   S
    Zr7    O34       3.87524      .   S
    N33    O35       2.97367      .   S
    Zr8    O35       3.87470      .   S
    N33    O36       2.97376      .   S
    Zr11   O36       3.87469  1_556   S
    N33    O37       2.97361      .   S
    Zr1    O37       3.87450      .   S
    N33    O38       2.97385      .   S
    Zr3    O38       3.87473  1_565   S
    N33    O39       2.97402      .   S
    Zr5    O39       3.87522      .   S
    N40    O41       2.97393      .   S
    Zr6    O41       3.87523  1_565   S
    N40    O42       2.97366      .   S
    Zr9    O42       3.87476  1_455   S
    N40    O43       2.97416      .   S
    Zr11   O43       3.87528      .   S
    N40    O44       2.97344      .   S
    Zr1    O44       3.87439  1_455   S
    N40    O45       2.97350      .   S
    Zr2    O45       3.87420      .   S
    N40    O46       2.97421      .   S
    Zr4    O46       3.87527      .   S
    N47    O48       2.97413      .   S
    Zr7    O48       3.87548  1_545   S
    N47    O49       2.97382      .   S
    Zr9    O49       3.87493      .   S
    N47    O50       2.97390      .   S
    Zr10   O50       3.87491  1_554   S
    N47    O51       2.97367      .   S
    Zr0    O51       3.87456      .   S
    N47    O52       2.97390      .   S
    Zr2    O52       3.87490  1_545   S
    N47    O53       2.97398      .   S
    Zr5    O53       3.87541  1_554   S
    N54    O55       2.97344      .   S
    Zr0    O55       3.87442  1_455   S
    N54    O56       2.97380      .   S
    Zr2    O56       3.87478  1_545   S
    N54    O57       2.97422      .   S
    Zr4    O57       3.87548      .   S
    N54    O58       2.97394      .   S
    Zr6    O58       3.87517      .   S
    N54    O59       2.97372      .   S
    Zr9    O59       3.87496  1_455   S
    N54    O60       2.97405      .   S
    Zr10   O60       3.87496  1_554   S
    N61    O62       2.97374      .   S
    Zr0    O62       3.87465      .   S
    N61    O63       2.97365      .   S
    Zr3    O63       3.87447      .   S
    N61    O64       2.97395      .   S
    Zr5    O64       3.87509      .   S
    N61    O65       2.97415      .   S
    Zr7    O65       3.87544  1_545   S
    N61    O66       2.97379      .   S
    Zr8    O66       3.87480      .   S
    N61    O67       2.97382      .   S
    Zr10   O67       3.87484      .   S
