# CIF file generated by openbabel 2.4.90, see http://openbabel.sf.net
data_I
_chemical_name_common ''
_cell_length_a 16.158
_cell_length_b 18.104
_cell_length_c 18.807
_cell_angle_alpha 90
_cell_angle_beta 90
_cell_angle_gamma 92.615
_space_group_name_H-M_alt 'P 1'
_space_group_name_Hall 'P 1'
loop_
    _symmetry_equiv_pos_as_xyz
    x,y,z
loop_
    _atom_site_label
    _atom_site_type_symbol
    _atom_site_fract_x
    _atom_site_fract_y
    _atom_site_fract_z
    _atom_site_occupancy
    Zn0     Zn   0.82975   0.37721   0.50379   1.000
    Zn1     Zn   0.66517   0.86314   0.00033   1.000
    Zn2     Zn   0.84069   0.88855   0.00000   1.000
    Zn3     Zn   0.36395   0.15953   0.00000   1.000
    Zn4     Zn   0.18843   0.13412   0.00000   1.000
    Zn5     Zn   0.37428   0.67079   0.50400   1.000
    Zn6     Zn   0.19937   0.64546   0.50378   1.000
    Zn7     Zn   0.65484   0.35188   0.50350   1.000
    C8      C    0.73682   0.45676   0.61188   1.000
    C9      C    0.76197   0.76570   0.91781   1.000
    C10     C    0.73240   0.47415   0.41208   1.000
    C11     C    0.76078   0.78530   0.10736   1.000
    O12     O    0.68159   0.94799   0.93260   1.000
    O13     O    0.82056   0.94915   0.91496   1.000
    O14     O    0.81765   0.28151   0.56568   1.000
    O15     O    0.67825   0.27534   0.58135   1.000
    O16     O    0.81340   0.98017   0.06199   1.000
    C17     C    0.74762   0.96810   0.89954   1.000
    C18     C    0.75111   0.25435   0.59353   1.000
    C19     C    0.74281   0.98543   0.09173   1.000
    C20     C    0.75032   0.27402   0.39642   1.000
    C21     C    0.28149   0.05457   0.10803   1.000
    C22     C    0.27800   0.76833   0.41403   1.000
    C23     C    0.28630   0.03724   0.91583   1.000
    C24     C    0.27880   0.74865   0.61114   1.000
    C25     C    0.29230   0.56591   0.39569   1.000
    C26     C    0.26714   0.25698   0.08976   1.000
    C27     C    0.29672   0.54853   0.59540   1.000
    C28     C    0.26834   0.23737   0.90020   1.000
    O29     O    0.67076   0.43662   0.57886   1.000
    O30     O    0.80975   0.43783   0.59640   1.000
    O31     O    0.82853   0.79283   0.94566   1.000
    O32     O    0.68912   0.78671   0.93002   1.000
    O33     O    0.80300   0.46889   0.44179   1.000
    O34     O    0.66726   0.43461   0.42626   1.000
    O35     O    0.69025   0.78692   0.07728   1.000
    O36     O    0.82545   0.82427   0.09043   1.000
    O37     O    0.67766   0.94590   0.07758   1.000
    O38     O    0.67980   0.27566   0.42653   1.000
    O39     O    0.81500   0.31298   0.41334   1.000
    O40     O    0.34753   0.07468   0.07497   1.000
    O41     O    0.20855   0.07352   0.09260   1.000
    O42     O    0.21146   0.74116   0.44189   1.000
    O43     O    0.35087   0.74734   0.42621   1.000
    O44     O    0.21571   0.04250   0.94550   1.000
    O45     O    0.35145   0.07677   0.92999   1.000
    O46     O    0.34931   0.74701   0.58104   1.000
    O47     O    0.21411   0.70969   0.59423   1.000
    O48     O    0.35835   0.58605   0.42870   1.000
    O49     O    0.21936   0.58485   0.41116   1.000
    O50     O    0.20059   0.22984   0.06191   1.000
    O51     O    0.34000   0.23596   0.07755   1.000
    O52     O    0.22611   0.55378   0.56577   1.000
    O53     O    0.36186   0.58806   0.58131   1.000
    O54     O    0.33886   0.23576   0.93029   1.000
    O55     O    0.20367   0.19840   0.91714   1.000
    Ts56    Ts   0.87226   0.38024   0.50379   1.000
    Ts57    Ts   0.62308   0.86210   0.00022   1.000
    Ts58    Ts   0.88299   0.89155   0.99997   1.000
    Ts59    Ts   0.40604   0.16058   0.00213   1.000
    Ts60    Ts   0.14613   0.13112   0.00000   1.000
    Ts61    Ts   0.41657   0.67185   0.50175   1.000
    Ts62    Ts   0.15686   0.64243   0.50378   1.000
    Ts63    Ts   0.61254   0.35082   0.50577   1.000
    Og64    Og   0.73369   0.47457   0.63194   1.000
    Og65    Og   0.76478   0.74511   0.90034   1.000
    Og66    Og   0.72972   0.49347   0.39329   1.000
    Og67    Og   0.76342   0.76757   0.12761   1.000
    Og68    Og   0.74448   0.97873   0.87948   1.000
    Og69    Og   0.75394   0.23376   0.61100   1.000
    Og70    Og   0.73307   0.99722   0.11051   1.000
    Og71    Og   0.75294   0.25629   0.37617   1.000
    Og72    Og   0.28464   0.03677   0.12809   1.000
    Og73    Og   0.27518   0.78891   0.39655   1.000
    Og74    Og   0.29605   0.02483   0.89705   1.000
    Og75    Og   0.27618   0.76638   0.63139   1.000
    Og76    Og   0.29542   0.54811   0.37563   1.000
    Og77    Og   0.26434   0.27756   0.10723   1.000
    Og78    Og   0.29940   0.52920   0.61421   1.000
    Og79    Og   0.26570   0.25510   0.87995   1.000
loop_
    _geom_bond_atom_site_label_1
    _geom_bond_atom_site_label_2
    _geom_bond_distance
    _geom_bond_site_symmetry_2
    _ccdc_geom_bond_type
    Zn2    O16       2.09082      .   S
    Zn2    O36       2.06912      .   S
    Zn2    O13       1.97480  1_554   S
    Zn2    O31       2.01371  1_554   S
    Zn3    O40       2.09305      .   S
    Zn3    O51       2.05923      .   S
    Zn3    O45       1.99792  1_554   S
    Zn3    O54       1.95919  1_554   S
    Zn1    O35       2.05282      .   S
    Zn1    O37       2.09015      .   S
    Zn1    O32       1.96514  1_554   S
    Zn1    O12       2.00388  1_554   S
    O50    C26       1.27436      .   S
    O50    Zn4       2.08955      .   S
    O16    C19       1.27779      .   S
    O40    C21       1.27369      .   S
    O35    C11       1.27380      .   S
    O51    C26       1.27441      .   S
    O37    C19       1.27369      .   S
    O36    C11       1.27428      .   S
    O41    C21       1.27582      .   S
    O41    Zn4       2.09162      .   S
    C25    O49       1.27583      .   S
    C25    O48       1.27366      .   S
    C20    O39       1.27433      .   S
    C20    O38       1.27392      .   S
    O49    Zn6       2.09165      .   S
    C10    O34       1.27373      .   S
    C10    O33       1.27780      .   S
    O39    Zn0       2.06821      .   S
    C22    O43       1.27435      .   S
    C22    O42       1.27439      .   S
    O43    Zn5       2.06191      .   S
    O34    Zn7       2.08963      .   S
    O38    Zn7       2.05255      .   S
    O48    Zn5       2.09505      .   S
    O33    Zn0       2.08964      .   S
    O42    Zn6       2.08901      .   S
    Zn7    O29       2.09586      .   S
    Zn7    O15       2.06271      .   S
    Zn6    O52       2.08953      .   S
    Zn6    O47       2.06819      .   S
    Zn0    O14       2.08903      .   S
    Zn0    O30       2.09150      .   S
    Zn5    O46       2.05347      .   S
    Zn5    O53       2.09056      .   S
    O14    C18       1.27433      .   S
    O52    C27       1.27714      .   S
    O29    C8        1.27374      .   S
    O46    C24       1.27385      .   S
    O53    C27       1.27337      .   S
    O15    C18       1.27436      .   S
    O47    C24       1.27428      .   S
    O30    C8        1.27586      .   S
    C17    O13       1.27579      .   S
    C17    O12       1.27369      .   S
    C28    O55       1.27432      .   S
    C28    O54       1.27388      .   S
    C23    O45       1.27372      .   S
    C23    O44       1.27723      .   S
    O55    Zn4       1.95378  1_556   S
    C9     O32       1.27441      .   S
    C9     O31       1.27436      .   S
    O44    Zn4       2.01566  1_556   S
    Zn7    Zn0       2.84246      .   S
    Zn1    Zn2       2.85237      .   S
    Zn3    Zn4       2.85236      .   S
    Zn5    Zn6       2.84246      .   S
    Zn0    Ts56      0.68653      .   S
    Zn1    Ts57      0.67943      .   S
    Zn2    Ts58      0.68319  1_554   S
    Zn3    Ts59      0.68060      .   S
    Zn4    Ts60      0.68319      .   S
    Zn5    Ts61      0.68410      .   S
    Zn6    Ts62      0.68653      .   S
    Zn7    Ts63      0.68412      .   S
    C8     Og64      0.50025      .   S
    C9     Og65      0.50042      .   S
    C10    Og66      0.50055      .   S
    C11    Og67      0.50112      .   S
    C17    Og68      0.42769      .   S
    C18    Og69      0.50044      .   S
    C19    Og70      0.44524      .   S
    C20    Og71      0.50108      .   S
    C21    Og72      0.50023      .   S
    C22    Og73      0.50056      .   S
    C23    Og74      0.45093      .   S
    C24    Og75      0.50113      .   S
    C25    Og76      0.50030      .   S
    C26    Og77      0.50042      .   S
    C27    Og78      0.50073      .   S
    C28    Og79      0.50111      .   S
