# CIF file generated by openbabel 2.4.90, see http://openbabel.sf.net
data_I
_chemical_name_common ''
_cell_length_a 14.51
_cell_length_b 19.408
_cell_length_c 26.343
_cell_angle_alpha 90
_cell_angle_beta 90.001
_cell_angle_gamma 90.002
_space_group_name_H-M_alt 'P 1'
_space_group_name_Hall 'P 1'
loop_
    _symmetry_equiv_pos_as_xyz
    x,y,z
loop_
    _atom_site_label
    _atom_site_type_symbol
    _atom_site_fract_x
    _atom_site_fract_y
    _atom_site_fract_z
    _atom_site_occupancy
    Ba0     Ba   0.69184   0.69248   0.99860   1.000
    Ba1     Ba   0.30816   0.30754   0.49861   1.000
    Ba2     Ba   0.80816   0.30751   0.49860   1.000
    Ba3     Ba   0.44183   0.80754   0.99860   1.000
    Ba4     Ba   0.94185   0.80755   0.99860   1.000
    Ba5     Ba   0.05815   0.19248   0.49860   1.000
    Ba6     Ba   0.55816   0.19248   0.49861   1.000
    H7      H    0.06169   0.12466   0.03384   1.000
    H8      H    0.56172   0.12465   0.03384   1.000
    H9      H    0.06868   0.23367   0.98467   1.000
    H10     H    0.56869   0.23367   0.98467   1.000
    H11     H    0.47735   0.31816   0.94699   1.000
    H12     H    0.97737   0.31817   0.94699   1.000
    H13     H    0.13246   0.41656   0.75519   1.000
    H14     H    0.63247   0.41656   0.75519   1.000
    H15     H    0.03503   0.20882   0.73267   1.000
    H16     H    0.53504   0.20882   0.73266   1.000
    H17     H    0.01585   0.42021   0.80423   1.000
    H18     H    0.51585   0.42021   0.80423   1.000
    H19     H    0.18370   0.42055   0.66549   1.000
    H20     H    0.68373   0.42056   0.66550   1.000
    H21     H    0.07057   0.20304   0.81722   1.000
    H22     H    0.57058   0.20304   0.81722   1.000
    H23     H    0.09030   0.21295   0.64393   1.000
    H24     H    0.59032   0.21297   0.64390   1.000
    H25     H    0.03841   0.94976   0.05963   1.000
    H26     H    0.53848   0.94974   0.05962   1.000
    H27     H    0.45994   0.12860   0.85382   1.000
    H28     H    0.95996   0.12860   0.85382   1.000
    H29     H    0.39294   0.47946   0.83601   1.000
    H30     H    0.89296   0.47946   0.83601   1.000
    H31     H    0.04227   0.42492   0.97144   1.000
    Ba32    Ba   0.19183   0.69249   0.99860   1.000
    H33     H    0.54229   0.42492   0.97140   1.000
    H34     H    0.36497   0.59665   0.87129   1.000
    H35     H    0.86499   0.59665   0.87128   1.000
    H36     H    0.45149   0.01993   0.90370   1.000
    H37     H    0.95149   0.01993   0.90374   1.000
    H38     H    0.01885   0.54305   0.00480   1.000
    H39     H    0.51885   0.54305   0.00481   1.000
    H40     H    0.43834   0.87536   0.53380   1.000
    H41     H    0.93842   0.87535   0.53385   1.000
    H42     H    0.43130   0.76635   0.48467   1.000
    H43     H    0.93131   0.76636   0.48467   1.000
    H44     H    0.02262   0.68186   0.44000   1.000
    H45     H    0.52265   0.68187   0.44700   1.000
    H46     H    0.36754   0.58346   0.25500   1.000
    H47     H    0.86754   0.58347   0.25519   1.000
    H48     H    0.46496   0.79120   0.23267   1.000
    H49     H    0.96497   0.79121   0.23267   1.000
    H50     H    0.48415   0.57981   0.30424   1.000
    H51     H    0.98415   0.57982   0.30423   1.000
    H52     H    0.31628   0.57946   0.16550   1.000
    H53     H    0.81630   0.57947   0.16549   1.000
    H54     H    0.42942   0.79698   0.31722   1.000
    H55     H    0.92942   0.79698   0.31722   1.000
    H56     H    0.40969   0.78705   0.14393   1.000
    H57     H    0.90970   0.78706   0.14393   1.000
    H58     H    0.46168   0.05023   0.55965   1.000
    H59     H    0.96196   0.05017   0.55971   1.000
    H60     H    0.04002   0.87142   0.35381   1.000
    H61     H    0.54004   0.87142   0.35382   1.000
    H62     H    0.10703   0.52057   0.33601   1.000
    H63     H    0.60706   0.52057   0.33602   1.000
    H64     H    0.45773   0.57511   0.47140   1.000
    H65     H    0.95774   0.57511   0.47145   1.000
    H66     H    0.13500   0.40337   0.37120   1.000
    H67     H    0.63504   0.40338   0.37130   1.000
    H68     H    0.04855   0.98008   0.40374   1.000
    H69     H    0.54853   0.98009   0.40375   1.000
    H70     H    0.48117   0.45697   0.50482   1.000
    H71     H    0.98118   0.45697   0.50481   1.000
    H72     H    0.31161   0.37535   0.03385   1.000
    H73     H    0.81173   0.37536   0.03384   1.000
    H74     H    0.31869   0.26636   0.98460   1.000
    H75     H    0.81870   0.26635   0.98467   1.000
    H76     H    0.22736   0.18186   0.94699   1.000
    H77     H    0.72737   0.18186   0.94699   1.000
    H78     H    0.38246   0.08347   0.75519   1.000
    H79     H    0.88247   0.08346   0.75520   1.000
    H80     H    0.28503   0.29120   0.73266   1.000
    H81     H    0.78505   0.29120   0.73266   1.000
    H82     H    0.26586   0.07981   0.80423   1.000
    H83     H    0.76587   0.07981   0.80423   1.000
    H84     H    0.43371   0.07947   0.66549   1.000
    H85     H    0.93373   0.07946   0.66550   1.000
    H86     H    0.32057   0.29698   0.81722   1.000
    H87     H    0.82058   0.29698   0.81722   1.000
    H88     H    0.34031   0.28705   0.64390   1.000
    H89     H    0.84032   0.28705   0.64392   1.000
    H90     H    0.28811   0.55018   0.05969   1.000
    H91     H    0.78849   0.55028   0.05960   1.000
    H92     H    0.20996   0.37142   0.85380   1.000
    H93     H    0.70994   0.37142   0.85382   1.000
    H94     H    0.14294   0.02056   0.83601   1.000
    H95     H    0.64296   0.02056   0.83601   1.000
    H96     H    0.29229   0.07510   0.97144   1.000
    H97     H    0.79231   0.07510   0.97144   1.000
    H98     H    0.11497   0.90338   0.87129   1.000
    H99     H    0.61498   0.90338   0.87129   1.000
    C100    C    0.86145   0.68250   0.14857   1.000
    C101    C    0.50214   0.68366   0.40728   1.000
    C102    C    0.00000   0.68366   0.40728   1.000
    C103    C    0.37900   0.62796   0.23073   1.000
    H104    H    0.20143   0.48008   0.90374   1.000
    H105    H    0.70149   0.48009   0.90374   1.000
    H106    H    0.26886   0.95697   0.00480   1.000
    H107    H    0.76887   0.95696   0.00480   1.000
    H108    H    0.18828   0.62466   0.53384   1.000
    H109    H    0.68862   0.62466   0.53387   1.000
    H110    H    0.18130   0.73367   0.48467   1.000
    H111    H    0.68129   0.73362   0.48466   1.000
    H112    H    0.27263   0.81816   0.44700   1.000
    H113    H    0.77263   0.81815   0.44000   1.000
    H114    H    0.11752   0.91655   0.25519   1.000
    H115    H    0.61753   0.91656   0.25519   1.000
    H116    H    0.21496   0.70882   0.23267   1.000
    H117    H    0.71497   0.70882   0.23267   1.000
    H118    H    0.23413   0.92021   0.30423   1.000
    H119    H    0.73415   0.92021   0.30423   1.000
    H120    H    0.06628   0.92055   0.16549   1.000
    H121    H    0.56629   0.92055   0.16549   1.000
    H122    H    0.17942   0.70304   0.31722   1.000
    H123    H    0.67941   0.70304   0.31721   1.000
    H124    H    0.15969   0.71296   0.14393   1.000
    H125    H    0.65970   0.71296   0.14393   1.000
    H126    H    0.21152   0.44974   0.55962   1.000
    H127    H    0.71293   0.44999   0.55988   1.000
    H128    H    0.29006   0.62860   0.35382   1.000
    H129    H    0.78998   0.62860   0.35378   1.000
    H130    H    0.35704   0.97946   0.33602   1.000
    H131    H    0.85705   0.97945   0.33602   1.000
    C132    C    0.37100   0.12796   0.73070   1.000
    C133    C    0.87101   0.12796   0.73073   1.000
    C134    C    0.31865   0.24477   0.71861   1.000
    C135    C    0.81866   0.24477   0.71861   1.000
    C136    C    0.26792   0.12678   0.82683   1.000
    H137    H    0.20771   0.92492   0.47145   1.000
    H138    H    0.70771   0.92491   0.47145   1.000
    H139    H    0.38501   0.09665   0.37129   1.000
    H140    H    0.88503   0.09664   0.37129   1.000
    H141    H    0.29852   0.51993   0.40375   1.000
    H142    H    0.79867   0.51995   0.40372   1.000
    H143    H    0.23115   0.04305   0.50481   1.000
    H144    H    0.73116   0.04304   0.50481   1.000
    C145    C    0.04676   0.31152   0.80411   1.000
    C146    C    0.54677   0.31153   0.80411   1.000
    C147    C    0.03880   0.12591   0.99447   1.000
    C148    C    0.53882   0.12591   0.99446   1.000
    C149    C    0.04224   0.18698   0.96680   1.000
    C150    C    0.54226   0.18698   0.96680   1.000
    C151    C    0.07894   0.31246   0.75079   1.000
    C152    C    0.57895   0.31247   0.75079   1.000
    C153    C    0.13855   0.31752   0.64857   1.000
    C154    C    0.63858   0.31754   0.64857   1.000
    C155    C    0.99785   0.31637   0.90720   1.000
    C156    C    0.49786   0.31637   0.90728   1.000
    C157    C    0.12100   0.37206   0.73072   1.000
    C158    C    0.62101   0.37206   0.73073   1.000
    C159    C    0.06864   0.25524   0.71862   1.000
    C160    C    0.56866   0.25525   0.71861   1.000
    C161    C    0.01791   0.37324   0.82683   1.000
    C162    C    0.51792   0.37325   0.82683   1.000
    C163    C    0.49474   0.37687   0.87832   1.000
    C164    C    0.99476   0.37687   0.87832   1.000
    C165    C    0.15013   0.37466   0.68000   1.000
    C166    C    0.65015   0.37467   0.68050   1.000
    C167    C    0.04653   0.25133   0.83365   1.000
    C168    C    0.54654   0.25133   0.83365   1.000
    C169    C    0.02077   0.25300   0.88509   1.000
    C170    C    0.52078   0.25300   0.88509   1.000
    C171    C    0.01599   0.18882   0.91532   1.000
    C172    C    0.51600   0.18882   0.91532   1.000
    C173    C    0.09803   0.25776   0.66839   1.000
    C174    C    0.59804   0.25778   0.66839   1.000
    C175    C    0.17391   0.31902   0.59525   1.000
    C176    C    0.67397   0.31904   0.59525   1.000
    C177    C    0.00247   0.99830   0.99889   1.000
    C178    C    0.50252   0.99829   0.99888   1.000
    C179    C    0.00664   0.06506   0.97166   1.000
    C180    C    0.50667   0.06506   0.97166   1.000
    C181    C    0.47121   0.44426   0.90082   1.000
    C182    C    0.97122   0.44426   0.90081   1.000
    C183    C    0.48346   0.12766   0.89307   1.000
    C184    C    0.98347   0.12766   0.89307   1.000
    C185    C    0.42080   0.49338   0.87306   1.000
    C186    C    0.92083   0.49339   0.87306   1.000
    C187    C    0.00300   0.46226   0.94939   1.000
    C188    C    0.50300   0.46226   0.94939   1.000
    C189    C    0.40482   0.55885   0.89261   1.000
    C190    C    0.90484   0.55885   0.89260   1.000
    C191    C    0.47798   0.06698   0.92083   1.000
    C192    C    0.97798   0.06698   0.92083   1.000
    C193    C    0.99027   0.52855   0.96811   1.000
    C194    C    0.49027   0.52855   0.96810   1.000
    C195    C    0.44205   0.57772   0.93966   1.000
    C196    C    0.94207   0.57772   0.93966   1.000
    C197    C    0.43592   0.65062   0.95764   1.000
    C198    C    0.93593   0.65063   0.95764   1.000
    C199    C    0.45323   0.68849   0.30410   1.000
    C200    C    0.95323   0.68850   0.30411   1.000
    C201    C    0.46122   0.87411   0.49447   1.000
    C202    C    0.96128   0.87411   0.49447   1.000
    C203    C    0.45775   0.81304   0.46680   1.000
    C204    C    0.95777   0.81304   0.46680   1.000
    C205    C    0.42105   0.68755   0.25079   1.000
    C206    C    0.92106   0.68756   0.25079   1.000
    C207    C    0.36144   0.68249   0.14858   1.000
    O208    O    0.58964   0.76711   0.06668   1.000
    O209    O    0.20787   0.49796   0.54460   1.000
    O210    O    0.70996   0.49831   0.54507   1.000
    C211    C    0.87900   0.62796   0.23070   1.000
    C212    C    0.43135   0.74477   0.21862   1.000
    C213    C    0.93136   0.74478   0.21862   1.000
    C214    C    0.48208   0.62677   0.32684   1.000
    C215    C    0.98209   0.62678   0.32683   1.000
    C216    C    0.00524   0.62316   0.37832   1.000
    C217    C    0.50526   0.62316   0.37833   1.000
    C218    C    0.34986   0.62535   0.18050   1.000
    C219    C    0.84987   0.62536   0.18049   1.000
    C220    C    0.45346   0.74869   0.33366   1.000
    C221    C    0.95346   0.74869   0.33365   1.000
    C222    C    0.47921   0.74702   0.38510   1.000
    C223    C    0.97922   0.74702   0.38509   1.000
    C224    C    0.48400   0.81121   0.41532   1.000
    C225    C    0.98401   0.81121   0.41532   1.000
    C226    C    0.40197   0.74224   0.16800   1.000
    C227    C    0.90198   0.74225   0.16839   1.000
    C228    C    0.32607   0.68099   0.09525   1.000
    C229    C    0.82610   0.68100   0.09525   1.000
    C230    C    0.49757   0.00172   0.49890   1.000
    C231    C    0.99773   0.00169   0.49891   1.000
    C232    C    0.49339   0.93496   0.47167   1.000
    C233    C    0.99347   0.93495   0.47167   1.000
    C234    C    0.02877   0.55576   0.40082   1.000
    C235    C    0.52881   0.55577   0.40083   1.000
    C236    C    0.01653   0.87236   0.39306   1.000
    C237    C    0.51654   0.87237   0.39307   1.000
    C238    C    0.07917   0.50664   0.37306   1.000
    C239    C    0.57921   0.50665   0.37308   1.000
    C240    C    0.49702   0.53778   0.44941   1.000
    C241    C    0.99701   0.53777   0.44939   1.000
    C242    C    0.09515   0.44118   0.39260   1.000
    C243    C    0.59520   0.44118   0.39262   1.000
    C244    C    0.02206   0.93303   0.42083   1.000
    C245    C    0.52204   0.93304   0.42083   1.000
    C246    C    0.50976   0.47148   0.46813   1.000
    C247    C    0.00000   0.47147   0.46811   1.000
    C248    C    0.05793   0.42230   0.43966   1.000
    C249    C    0.55798   0.42231   0.43968   1.000
    C250    C    0.06406   0.34940   0.45764   1.000
    C251    C    0.56408   0.34940   0.45765   1.000
    C252    C    0.29677   0.18850   0.80411   1.000
    C253    C    0.79678   0.18850   0.80411   1.000
    C254    C    0.28873   0.37411   0.99447   1.000
    C255    C    0.78882   0.37412   0.99446   1.000
    C256    C    0.29223   0.31305   0.96680   1.000
    C257    C    0.79226   0.31305   0.96680   1.000
    C258    C    0.32895   0.18755   0.75079   1.000
    C259    C    0.82896   0.18755   0.75079   1.000
    C260    C    0.38856   0.18249   0.64857   1.000
    C261    C    0.88857   0.18248   0.64857   1.000
    C262    C    0.24787   0.18365   0.90727   1.000
    C263    C    0.74787   0.18365   0.90728   1.000
    C264    C    0.76793   0.12678   0.82683   1.000
    C265    C    0.24475   0.12316   0.87832   1.000
    C266    C    0.74475   0.12316   0.87832   1.000
    C267    C    0.40014   0.12536   0.68050   1.000
    C268    C    0.90015   0.12535   0.68050   1.000
    C269    C    0.29654   0.24869   0.83365   1.000
    C270    C    0.79654   0.24869   0.83365   1.000
    C271    C    0.27078   0.24703   0.88509   1.000
    C272    C    0.77078   0.24702   0.88509   1.000
    C273    C    0.26599   0.31121   0.91531   1.000
    C274    C    0.76600   0.31121   0.91532   1.000
    C275    C    0.34803   0.24225   0.66839   1.000
    C276    C    0.84805   0.24224   0.66839   1.000
    C277    C    0.42392   0.18099   0.59525   1.000
    C278    C    0.92394   0.18098   0.59525   1.000
    C279    C    0.25232   0.50171   0.99891   1.000
    C280    C    0.75252   0.50174   0.99888   1.000
    C281    C    0.25655   0.43495   0.97166   1.000
    C282    C    0.75667   0.43496   0.97166   1.000
    C283    C    0.22121   0.05576   0.90082   1.000
    C284    C    0.72123   0.05576   0.90080   1.000
    C285    C    0.23345   0.37236   0.89306   1.000
    C286    C    0.73346   0.37236   0.89307   1.000
    C287    C    0.17081   0.00664   0.87306   1.000
    C288    C    0.67082   0.00663   0.87306   1.000
    C289    C    0.25302   0.03777   0.94939   1.000
    C290    C    0.75303   0.03776   0.94939   1.000
    C291    C    0.15482   0.94118   0.89260   1.000
    C292    C    0.65484   0.94118   0.89260   1.000
    C293    C    0.22792   0.43303   0.92083   1.000
    C294    C    0.72798   0.43304   0.92083   1.000
    C295    C    0.24028   0.97148   0.96811   1.000
    C296    C    0.74030   0.97148   0.96811   1.000
    C297    C    0.19206   0.92231   0.93966   1.000
    C298    C    0.69207   0.92231   0.93966   1.000
    C299    C    0.18592   0.84941   0.95764   1.000
    C300    C    0.68593   0.84941   0.95764   1.000
    C301    C    0.20322   0.81153   0.30411   1.000
    C302    C    0.70322   0.81153   0.30411   1.000
    C303    C    0.21117   0.62590   0.49446   1.000
    C304    C    0.71145   0.62591   0.49448   1.000
    C305    C    0.20774   0.68698   0.46680   1.000
    C306    C    0.70781   0.68695   0.46680   1.000
    C307    C    0.17104   0.81246   0.25079   1.000
    C308    C    0.67105   0.81247   0.25079   1.000
    C309    C    0.11144   0.81753   0.14857   1.000
    C310    C    0.61145   0.81753   0.14857   1.000
    C311    C    0.25213   0.81637   0.40728   1.000
    C312    C    0.75212   0.81636   0.40728   1.000
    C313    C    0.12899   0.87206   0.23073   1.000
    C314    C    0.62900   0.87206   0.23072   1.000
    C315    C    0.18134   0.75525   0.21862   1.000
    C316    C    0.68135   0.75525   0.21862   1.000
    C317    C    0.23207   0.87325   0.32683   1.000
    C318    C    0.73208   0.87324   0.32680   1.000
    C319    C    0.25525   0.87687   0.37832   1.000
    C320    C    0.75525   0.87686   0.37830   1.000
    C321    C    0.09986   0.87466   0.18050   1.000
    C322    C    0.59987   0.87466   0.18049   1.000
    C323    C    0.20345   0.75133   0.33365   1.000
    C324    C    0.70344   0.75133   0.33365   1.000
    C325    C    0.22921   0.75300   0.38500   1.000
    C326    C    0.72920   0.75299   0.38509   1.000
    C327    C    0.23400   0.68881   0.41532   1.000
    C328    C    0.73400   0.68880   0.41531   1.000
    C329    C    0.15196   0.75777   0.16839   1.000
    C330    C    0.65198   0.75777   0.16839   1.000
    C331    C    0.07608   0.81903   0.09525   1.000
    C332    C    0.57610   0.81902   0.09525   1.000
    C333    C    0.24748   0.49828   0.49888   1.000
    C334    C    0.74826   0.49838   0.49890   1.000
    C335    C    0.24334   0.56506   0.47166   1.000
    C336    C    0.74373   0.56509   0.47168   1.000
    C337    C    0.27877   0.94426   0.40082   1.000
    C338    C    0.77879   0.94425   0.40082   1.000
    C339    C    0.26654   0.62766   0.39307   1.000
    C340    C    0.76654   0.62765   0.39304   1.000
    C341    C    0.32918   0.99339   0.37300   1.000
    C342    C    0.82919   0.99338   0.37307   1.000
    C343    C    0.24698   0.96226   0.44900   1.000
    C344    C    0.74700   0.96225   0.44940   1.000
    C345    C    0.34516   0.05884   0.39261   1.000
    C346    C    0.84518   0.05883   0.39261   1.000
    C347    C    0.27202   0.56698   0.42083   1.000
    C348    C    0.77217   0.56700   0.42082   1.000
    C349    C    0.25971   0.02854   0.46810   1.000
    C350    C    0.75973   0.02853   0.46812   1.000
    C351    C    0.30793   0.07771   0.43966   1.000
    C352    C    0.80795   0.07770   0.43967   1.000
    C353    C    0.31407   0.15062   0.45764   1.000
    C354    C    0.81408   0.15061   0.45764   1.000
    O355    O    0.36349   0.68594   0.94888   1.000
    O356    O    0.86350   0.68594   0.94888   1.000
    O357    O    0.00667   0.67509   0.98040   1.000
    O358    O    0.50668   0.67509   0.98045   1.000
    O359    O    0.46483   0.94691   0.98010   1.000
    O360    O    0.96483   0.94691   0.98010   1.000
    O361    O    0.22173   0.37133   0.58078   1.000
    O362    O    0.72188   0.37131   0.58081   1.000
    O363    O    0.16036   0.26711   0.56668   1.000
    O364    O    0.66038   0.26714   0.56668   1.000
    O365    O    0.04204   0.99798   0.04468   1.000
    O366    O    0.54213   0.99796   0.04467   1.000
    O367    O    0.13649   0.31409   0.44888   1.000
    O368    O    0.63650   0.31408   0.44888   1.000
    O369    O    0.49331   0.32494   0.48045   1.000
    O370    O    0.99332   0.32493   0.48045   1.000
    O371    O    0.03517   0.05313   0.48008   1.000
    O372    O    0.53517   0.05312   0.48009   1.000
    O373    O    0.27821   0.62869   0.08080   1.000
    O374    O    0.77827   0.62869   0.08078   1.000
    O375    O    0.33963   0.73289   0.06668   1.000
    O376    O    0.83964   0.73291   0.06668   1.000
    O377    O    0.45809   0.00200   0.54471   1.000
    O378    O    0.95849   0.00192   0.54479   1.000
    O379    O    0.11349   0.81409   0.94888   1.000
    O380    O    0.61350   0.81409   0.94888   1.000
    O381    O    0.25668   0.82494   0.98045   1.000
    O382    O    0.75669   0.82494   0.98045   1.000
    O383    O    0.21481   0.55313   0.98008   1.000
    O384    O    0.71483   0.55312   0.98010   1.000
    O385    O    0.47176   0.12869   0.58079   1.000
    O386    O    0.97180   0.12868   0.58080   1.000
    O387    O    0.41037   0.23290   0.56668   1.000
    O388    O    0.91038   0.23288   0.56668   1.000
    O389    O    0.29163   0.50194   0.04477   1.000
    O390    O    0.79214   0.50206   0.04460   1.000
    O391    O    0.38649   0.18593   0.44888   1.000
    O392    O    0.88650   0.18593   0.44888   1.000
    O393    O    0.24330   0.17508   0.48045   1.000
    O394    O    0.74331   0.17507   0.48045   1.000
    O395    O    0.28517   0.44690   0.48010   1.000
    O396    O    0.78520   0.44682   0.48000   1.000
    O397    O    0.02824   0.87133   0.08079   1.000
    O398    O    0.52826   0.87133   0.08078   1.000
    O399    O    0.08963   0.76712   0.06668   1.000
loop_
    _geom_bond_atom_site_label_1
    _geom_bond_atom_site_label_2
    _geom_bond_distance
    _geom_bond_site_symmetry_2
    _ccdc_geom_bond_type
    H107   C296      1.08879  1_554   S
    H106   C295      1.08881  1_554   S
    H38    C193      1.08867  1_454   S
    H39    C194      1.08921  1_554   S
    H73    C255      1.08957  1_554   S
    H7     C147      1.08930  1_554   S
    H8     C148      1.08957  1_554   S
    H72    C254      1.08947  1_554   S
    O390   H91       1.01729      .   S
    O390   C280      1.33453  1_554   S
    O366   H26       1.01677      .   S
    O366   C178      1.33619  1_554   S
    O365   H25       1.01678      .   S
    O365   C177      1.33592  1_554   S
    O389   H90       1.01668      .   S
    O389   C279      1.33599  1_554   S
    O399   C331      1.27282      .   S
    O399   Ba32      2.74107  1_554   S
    O208   C332      1.27284      .   S
    O208   Ba0       2.74102  1_554   S
    O376   C229      1.27284      .   S
    O376   Ba4       2.74113  1_554   S
    O375   C228      1.27276      .   S
    O375   Ba3       2.74132  1_554   S
    O398   C332      1.28751      .   S
    O374   C229      1.28751      .   S
    O397   C331      1.28745      .   S
    O373   C228      1.28741      .   S
    C331   C309      1.49562      .   S
    C332   C310      1.49560      .   S
    C229   C100      1.49561      .   S
    C228   C207      1.49593      .   S
    H56    C226      1.08209      .   S
    H57    C227      1.08815      .   S
    H124   C329      1.08812      .   S
    H125   C330      1.08814      .   S
    C100   C227      1.40121      .   S
    C100   C219      1.40174      .   S
    C309   C329      1.40124      .   S
    C309   C321      1.40188      .   S
    C310   C330      1.40123      .   S
    C310   C322      1.40174      .   S
    C207   C226      1.39736      .   S
    C207   C218      1.40170      .   S
    H121   C322      1.08936      .   S
    H120   C321      1.08947      .   S
    H53    C219      1.08936      .   S
    H52    C218      1.08938      .   S
    C226   C212      1.40083      .   S
    C227   C213      1.39104      .   S
    C329   C315      1.39104      .   S
    C330   C316      1.39103      .   S
    C219   C211      1.38948      .   S
    C322   C314      1.38997      .   S
    C218   C103      1.39000      .   S
    C321   C313      1.38998      .   S
    C212   H48       1.08937      .   S
    C212   C205      1.40491      .   S
    C213   H49       1.08935      .   S
    C213   C206      1.40494      .   S
    C315   H116      1.08938      .   S
    C315   C307      1.40491      .   S
    C316   H117      1.08935      .   S
    C316   C308      1.40494      .   S
    C211   C206      1.41070      .   S
    C211   H47       1.09074      .   S
    C314   C308      1.41051      .   S
    C314   H115      1.09041      .   S
    C103   C205      1.41041      .   S
    C103   H46       1.08731      .   S
    C313   C307      1.41041      .   S
    C313   H114      1.09026      .   S
    C307   C301      1.48029      .   S
    C308   C302      1.48025      .   S
    C205   C199      1.48003      .   S
    C206   C200      1.48026      .   S
    C199   C214      1.40320      .   S
    C199   C220      1.40402      .   S
    C200   C215      1.40299      .   S
    C200   C221      1.40369      .   S
    C302   C318      1.40261      .   S
    C302   C324      1.40373      .   S
    C301   C317      1.40297      .   S
    C301   C323      1.40371      .   S
    H118   C317      1.08908      .   S
    H119   C318      1.08867      .   S
    H51    C215      1.08907      .   S
    H50    C214      1.08908      .   S
    H123   C324      1.08972      .   S
    H122   C323      1.08966      .   S
    H54    C220      1.08976      .   S
    H55    C221      1.08966      .   S
    C318   C320      1.39947      .   S
    C215   C216      1.39915  1_655   S
    C317   C319      1.39922      .   S
    C214   C217      1.39923      .   S
    C323   C325      1.40375      .   S
    C324   C326      1.40602      .   S
    C221   C223      1.40604      .   S
    C220   C222      1.40603      .   S
    H62    C238      1.09045      .   S
    H130   C341      1.08880      .   S
    H63    C239      1.09059      .   S
    H131   C342      1.09044      .   S
    H129   C340      1.08888      .   S
    H60    C236      1.08885      .   S
    H128   C339      1.08899      .   S
    H61    C237      1.08892      .   S
    H66    C242      1.09109      .   S
    H140   C346      1.09001      .   S
    H139   C345      1.09003      .   S
    H67    C243      1.08997      .   S
    C341   C345      1.39080  1_565   S
    C341   C337      1.40744      .   S
    C238   C242      1.39033      .   S
    C238   C234      1.40660      .   S
    C342   C346      1.39012  1_565   S
    C342   C338      1.40649      .   S
    C239   C243      1.39029      .   S
    C239   C235      1.40651      .   S
    C320   C338      1.47627      .   S
    C320   C312      1.40128      .   S
    C216   C234      1.47607      .   S
    C216   C102      1.40227      .   S
    C319   C337      1.47608      .   S
    C319   C311      1.40094      .   S
    C217   C235      1.47604      .   S
    C217   C101      1.40083      .   S
    C325   C311      1.40277      .   S
    C325   C327      1.48135      .   S
    C223   C102      1.39473  1_655   S
    C223   C225      1.48009      .   S
    C326   C312      1.40174      .   S
    C326   C328      1.48003      .   S
    C222   C101      1.40163      .   S
    C222   C224      1.47995      .   S
    C242   C248      1.40100      .   S
    C345   C351      1.40080      .   S
    C346   C352      1.40103      .   S
    C243   C249      1.40095      .   S
    C340   C328      1.40553      .   S
    C340   C348      1.38858      .   S
    C236   C225      1.40544  1_455   S
    C236   C244      1.38853      .   S
    C237   C224      1.40547      .   S
    C237   C245      1.38842      .   S
    C339   C327      1.40547      .   S
    C339   C347      1.38845      .   S
    C337   C343      1.39487      .   S
    C338   C344      1.40448      .   S
    C234   C241      1.40409  1_455   S
    C235   C240      1.40441      .   S
    H142   C348      1.08831      .   S
    H68    C244      1.08825      .   S
    H141   C347      1.08818      .   S
    H69    C245      1.08818      .   S
    C312   H113      0.91252      .   S
    C101   H45       1.08839      .   S
    C311   H112      1.08838      .   S
    C102   H44       0.92298      .   S
    C328   C306      1.40912      .   S
    C224   C203      1.40904      .   S
    C225   C204      1.40900      .   S
    C327   C305      1.40910      .   S
    C348   C336      1.40244      .   S
    C245   C232      1.40283      .   S
    C347   C335      1.40272      .   S
    C244   C233      1.40255  1_455   S
    C248   C250      1.49471      .   S
    C248   C247      1.47612      .   S
    C351   C353      1.49472      .   S
    C351   C349      1.40055      .   S
    C352   C354      1.49467      .   S
    C352   C350      1.40067      .   S
    C249   C251      1.49475      .   S
    C249   C246      1.40068      .   S
    O392   C354      1.27571      .   S
    O391   C353      1.27571      .   S
    O367   C250      1.27572      .   S
    O368   C251      1.27571      .   S
    C343   C349      1.39363  1_565   S
    C343   H137      1.09529      .   S
    C241   C247      1.37862  1_655   S
    C241   H65       1.08973      .   S
    C344   C350      1.39005  1_565   S
    C344   H138      1.08965      .   S
    C240   C246      1.39024      .   S
    C240   H64       1.08886      .   S
    C353   O393      1.28095      .   S
    C354   O394      1.28100      .   S
    C250   O370      1.28067  1_455   S
    C251   O369      1.28091      .   S
    C306   H111      1.09080      .   S
    C306   C304      1.39219      .   S
    C204   H43       1.09089      .   S
    C204   C202      1.39226      .   S
    C203   H42       1.09089      .   S
    C203   C201      1.39232      .   S
    C305   H110      1.09087      .   S
    C305   C303      1.39225      .   S
    C349   H143      1.08917      .   S
    C247   H71       1.04334  1_455   S
    C350   H144      1.08877      .   S
    C246   H70       1.08887      .   S
    C335   C303      1.40465      .   S
    C335   C333      1.48237      .   S
    C232   C201      1.40465      .   S
    C232   C230      1.48221  1_565   S
    C233   C202      1.40466      .   S
    C233   C231      1.48215  1_565   S
    C336   C304      1.40475      .   S
    C336   C334      1.48156      .   S
    O396   C334      1.23951      .   S
    O371   C231      1.24011  1_455   S
    O372   C230      1.24041      .   S
    O395   C333      1.24030      .   S
    O393   Ba5       2.74967      .   S
    O394   Ba6       2.74965      .   S
    O370   Ba2       2.74974      .   S
    O369   Ba1       2.74964      .   S
    C303   H108      1.08954      .   S
    C201   H40       1.08822      .   S
    C202   H41       1.08942      .   S
    C304   H109      1.08953      .   S
    Ba2    O388      2.74117      .   S
    Ba5    O363      2.74110      .   S
    Ba1    O387      2.74105      .   S
    Ba6    O364      2.74121      .   S
    C333   O209      1.33449      .   S
    C334   O210      1.33720      .   S
    C230   O377      1.33587      .   S
    C231   O378      1.33602      .   S
    O209   H126      1.01751      .   S
    O377   H58       1.01674      .   S
    O378   H59       1.01675      .   S
    O210   H127      1.01664      .   S
    O387   C277      1.27280      .   S
    O363   C175      1.27281      .   S
    O388   C278      1.27274      .   S
    O364   C176      1.27273      .   S
    O361   C175      1.28751      .   S
    O385   C277      1.28745      .   S
    O386   C278      1.28742      .   S
    O362   C176      1.28733      .   S
    C277   C260      1.49566      .   S
    C175   C153      1.49564      .   S
    C176   C154      1.49582      .   S
    C278   C261      1.49572      .   S
    H88    C275      1.08859      .   S
    H24    C174      1.08860      .   S
    H89    C276      1.08826      .   S
    H23    C173      1.08814      .   S
    C260   C275      1.40126      .   S
    C260   C267      1.40184      .   S
    C153   C173      1.40122      .   S
    C153   C165      1.39402      .   S
    C154   C174      1.40129      .   S
    C154   C166      1.40180      .   S
    C261   C276      1.40128      .   S
    C261   C268      1.40182      .   S
    H19    C165      1.08474      .   S
    H84    C267      1.08949      .   S
    H20    C166      1.08943      .   S
    H85    C268      1.08940      .   S
    C173   C159      1.39108      .   S
    C174   C160      1.39084      .   S
    C276   C135      1.39083      .   S
    C275   C134      1.39082      .   S
    C165   C157      1.40231      .   S
    C166   C158      1.39005      .   S
    C268   C133      1.39002      .   S
    C267   C132      1.38926      .   S
    C135   H81       1.08941      .   S
    C135   C259      1.40501      .   S
    C134   H80       1.08938      .   S
    C134   C258      1.40506      .   S
    C160   H16       1.08939      .   S
    C160   C152      1.40503      .   S
    C159   H15       1.08936      .   S
    C159   C151      1.40494      .   S
    C132   C258      1.41074      .   S
    C132   H78       1.09070      .   S
    C157   C151      1.41053      .   S
    C157   H13       1.09044      .   S
    C133   C259      1.41047      .   S
    C133   H79       1.09039      .   S
    C158   C152      1.41043      .   S
    C158   H14       1.09025      .   S
    C259   C253      1.48031      .   S
    C151   C145      1.48027      .   S
    C152   C146      1.48031      .   S
    C258   C252      1.48029      .   S
    C253   C264      1.40298      .   S
    C253   C270      1.40371      .   S
    C146   C162      1.40299      .   S
    C146   C168      1.40371      .   S
    C145   C161      1.40302      .   S
    C145   C167      1.40368      .   S
    C252   C136      1.40297      .   S
    C252   C269      1.40373      .   S
    H83    C264      1.08908      .   S
    H82    C136      1.08910      .   S
    H18    C162      1.08908      .   S
    H17    C161      1.08906      .   S
    H87    C270      1.08967      .   S
    H22    C168      1.08967      .   S
    H21    C167      1.08968      .   S
    H86    C269      1.08964      .   S
    C162   C163      1.39923      .   S
    C161   C164      1.39917  1_455   S
    C136   C265      1.39923      .   S
    C264   C266      1.39923      .   S
    C168   C170      1.40606      .   S
    C167   C169      1.40607      .   S
    C270   C272      1.40606      .   S
    C269   C271      1.40606      .   S
    H29    C185      1.09043      .   S
    H94    C287      1.09047      .   S
    H30    C186      1.09047      .   S
    H95    C288      1.09048      .   S
    H92    C285      1.08911      .   S
    H93    C286      1.08898      .   S
    H28    C184      1.08895      .   S
    H27    C183      1.08898      .   S
    H35    C190      1.09001      .   S
    H34    C189      1.09001      .   S
    H98    C291      1.08989      .   S
    H99    C292      1.08988      .   S
    C287   C291      1.39012  1_545   S
    C287   C283      1.40662      .   S
    C186   C190      1.39032      .   S
    C186   C182      1.40645      .   S
    C185   C189      1.39040      .   S
    C185   C181      1.40662      .   S
    C288   C292      1.39012  1_545   S
    C288   C284      1.40635      .   S
    C164   C182      1.47599      .   S
    C164   C155      1.39977      .   S
    C163   C181      1.47608      .   S
    C163   C156      1.40094      .   S
    C265   C283      1.47606      .   S
    C265   C262      1.40081      .   S
    C266   C284      1.47587      .   S
    C266   C263      1.40094      .   S
    C271   C262      1.40166      .   S
    C271   C273      1.47993      .   S
    C272   C263      1.40177      .   S
    C272   C274      1.48006      .   S
    C169   C155      1.40090  1_455   S
    C169   C171      1.48006      .   S
    C170   C156      1.40178      .   S
    C170   C172      1.48007      .   S
    C190   C196      1.40099      .   S
    C292   C298      1.40103      .   S
    C291   C297      1.40102      .   S
    C189   C195      1.40075      .   S
    C285   C273      1.40543      .   S
    C285   C293      1.38855      .   S
    C286   C274      1.40547      .   S
    C286   C294      1.38845      .   S
    C183   C172      1.40547      .   S
    C183   C191      1.38845      .   S
    C184   C171      1.40537  1_655   S
    C184   C192      1.38844      .   S
    C284   C290      1.40476      .   S
    C182   C187      1.40438  1_655   S
    C283   C289      1.40428      .   S
    C181   C188      1.40424      .   S
    H36    C191      1.08873      .   S
    H105   C294      1.08830      .   S
    H104   C293      1.08827      .   S
    H37    C192      1.08828      .   S
    C155   H12       1.09008      .   S
    C262   H76       1.08839      .   S
    C263   H77       1.08814      .   S
    C156   H11       1.08814      .   S
    C273   C256      1.40927      .   S
    C274   C257      1.40910      .   S
    C171   C149      1.40908      .   S
    C172   C150      1.40909      .   S
    C192   C179      1.40258  1_655   S
    C293   C281      1.40243      .   S
    C191   C180      1.40271      .   S
    C294   C282      1.40271      .   S
    C196   C198      1.49472      .   S
    C196   C193      1.40056      .   S
    C195   C197      1.49475      .   S
    C195   C194      1.40055      .   S
    C298   C300      1.49471      .   S
    C298   C296      1.40071      .   S
    C297   C299      1.49471      .   S
    C297   C295      1.40071      .   S
    O355   C197      1.27570      .   S
    O356   C198      1.27571      .   S
    O379   C299      1.27572      .   S
    O380   C300      1.27572      .   S
    C188   C194      1.39015      .   S
    C188   H33       1.08907      .   S
    C187   C193      1.39025  1_455   S
    C187   H31       1.08959      .   S
    C290   C296      1.39005  1_545   S
    C290   H97       1.08962      .   S
    C289   C295      1.39005  1_545   S
    C289   H96       1.08961      .   S
    C197   O358      1.28092      .   S
    C198   O357      1.28000  1_655   S
    C299   O381      1.28089      .   S
    C300   O382      1.28090      .   S
    C256   H74       1.09009      .   S
    C256   C254      1.39227      .   S
    C257   H75       1.09087      .   S
    C257   C255      1.39225      .   S
    C150   H10       1.09086      .   S
    C150   C148      1.39225      .   S
    C149   H9        1.09088      .   S
    C149   C147      1.39236      .   S
    C281   C254      1.40476      .   S
    C281   C279      1.48248      .   S
    C282   C255      1.40464      .   S
    C282   C280      1.48239      .   S
    C180   C148      1.40464      .   S
    C180   C178      1.48220  1_545   S
    C179   C147      1.40475      .   S
    C179   C177      1.48227  1_545   S
    O383   C279      1.24037      .   S
    O384   C280      1.24029      .   S
    O360   C177      1.24020  1_655   S
    O359   C178      1.24029      .   S
    O357   Ba32      2.74988      .   S
    O381   Ba3       2.74960      .   S
    O382   Ba4       2.74963      .   S
    O358   Ba0       2.74960      .   S
    O355   Ba32      2.81712      .   S
    O355   Ba3       2.92875      .   S
    O356   Ba0       2.81716      .   S
    O356   Ba4       2.92884      .   S
    O357   Ba4       2.77911  1_455   S
    O358   Ba3       2.77897      .   S
    O359   Ba3       2.76846      .   S
    O360   Ba4       2.76841      .   S
    O361   Ba1       2.79125      .   S
    O362   Ba2       2.79118      .   S
    O363   Ba1       2.90347      .   S
    O364   Ba2       2.90322      .   S
    O367   Ba1       2.81724      .   S
    O367   Ba5       2.92881      .   S
    O368   Ba2       2.81711      .   S
    O368   Ba6       2.92864      .   S
    O369   Ba6       2.77901      .   S
    O370   Ba5       2.77883  1_655   S
    O371   Ba5       2.76829      .   S
    O372   Ba6       2.76857      .   S
    O373   Ba32      2.79161  1_554   S
    O374   Ba0       2.79151  1_554   S
    O375   Ba32      2.90349  1_554   S
    O376   Ba0       2.90369  1_554   S
    O379   Ba32      2.92879      .   S
    O379   Ba4       2.81686  1_455   S
    O380   Ba0       2.92885      .   S
    O380   Ba3       2.81711      .   S
    O381   Ba32      2.77893      .   S
    O382   Ba0       2.77896      .   S
    O383   Ba32      2.76840      .   S
    O384   Ba0       2.76845      .   S
    O385   Ba6       2.79130      .   S
    O386   Ba5       2.79132  1_655   S
    O387   Ba6       2.90337      .   S
    O388   Ba5       2.90320  1_655   S
    O391   Ba1       2.92894      .   S
    O391   Ba6       2.81717      .   S
    O392   Ba2       2.92846      .   S
    O392   Ba5       2.81686  1_655   S
    O393   Ba1       2.77900      .   S
    O394   Ba2       2.77867      .   S
    O395   Ba1       2.76849      .   S
    O396   Ba2       2.76794      .   S
    O397   Ba4       2.79134  1_454   S
    O398   Ba3       2.79137  1_554   S
    O399   Ba4       2.90349  1_454   S
    O208   Ba3       2.90377  1_554   S
