# CIF file generated by openbabel 2.4.90, see http://openbabel.sf.net
data_I
_chemical_name_common ''
_cell_length_a 18.343
_cell_length_b 19.757
_cell_length_c 19.757
_cell_angle_alpha 90
_cell_angle_beta 90
_cell_angle_gamma 89.999
_space_group_name_H-M_alt 'P 1'
_space_group_name_Hall 'P 1'
loop_
    _symmetry_equiv_pos_as_xyz
    x,y,z
loop_
    _atom_site_label
    _atom_site_type_symbol
    _atom_site_fract_x
    _atom_site_fract_y
    _atom_site_fract_z
    _atom_site_occupancy
    N0      N    0.80724   0.95115   0.20597   1.000
    N1      N    0.47013   0.92241   0.19795   1.000
    N2      N    0.97012   0.92241   0.19795   1.000
    N3      N    0.05726   0.29403   0.54880   1.000
    N4      N    0.55726   0.29403   0.54887   1.000
    N5      N    0.22014   0.30206   0.57761   1.000
    N6      N    0.72013   0.30206   0.57761   1.000
    N7      N    0.05726   0.70598   0.45114   1.000
    N8      N    0.30726   0.79404   0.95115   1.000
    N9      N    0.80725   0.79404   0.95115   1.000
    N10     N    0.47013   0.80207   0.92241   1.000
    N11     N    0.97012   0.80207   0.92241   1.000
    N12     N    0.30726   0.20598   0.04886   1.000
    N13     N    0.80725   0.20598   0.04886   1.000
    N14     N    0.47013   0.19795   0.07760   1.000
    N15     N    0.97013   0.19796   0.07760   1.000
    N16     N    0.30726   0.04887   0.79404   1.000
    N17     N    0.80726   0.04887   0.79404   1.000
    N18     N    0.47014   0.07761   0.80206   1.000
    N19     N    0.97013   0.07761   0.80206   1.000
    N20     N    0.30725   0.95115   0.20597   1.000
    N21     N    0.55725   0.70599   0.45114   1.000
    N22     N    0.22013   0.69797   0.42240   1.000
    N23     N    0.72013   0.69796   0.42240   1.000
    N24     N    0.05726   0.54888   0.70598   1.000
    N25     N    0.55726   0.54888   0.70598   1.000
    N26     N    0.22013   0.57762   0.69796   1.000
    N27     N    0.72013   0.57762   0.69796   1.000
    N28     N    0.05726   0.45114   0.29403   1.000
    N29     N    0.55725   0.45114   0.29403   1.000
    N30     N    0.22013   0.42240   0.30205   1.000
    N31     N    0.72013   0.42240   0.30205   1.000
