# CIF file generated by openbabel 2.4.90, see http://openbabel.sf.net
data_I
_chemical_name_common ''
_cell_length_a 18.343
_cell_length_b 19.757
_cell_length_c 19.757
_cell_angle_alpha 90
_cell_angle_beta 90
_cell_angle_gamma 89.999
_space_group_name_H-M_alt 'P 1'
_space_group_name_Hall 'P 1'
loop_
    _symmetry_equiv_pos_as_xyz
    x,y,z
loop_
    _atom_site_label
    _atom_site_type_symbol
    _atom_site_fract_x
    _atom_site_fract_y
    _atom_site_fract_z
    _atom_site_occupancy
    Mc0     Mc   0.53513   0.86066   0.17504   1.000
    Mc1     Mc   0.52295   0.99620   0.20969   1.000
    Mc2     Mc   0.23804   0.00382   0.23855   1.000
    Mc3     Mc   0.26107   0.90226   0.14500   1.000
    Ts4     Ts   0.39256   0.97352   0.13794   1.000
    Mc5     Mc   0.23805   0.99607   0.76146   1.000
    Mc6     Mc   0.52296   0.00382   0.79032   1.000
    Mc7     Mc   0.53514   0.13936   0.82497   1.000
    Mc8     Mc   0.26108   0.09776   0.85501   1.000
    Ts9     Ts   0.39256   0.02651   0.86205   1.000
    Mc10    Mc   0.76107   0.14501   0.09774   1.000
    Mc11    Mc   0.02296   0.20969   0.00381   1.000
    Mc12    Mc   0.73804   0.23855   0.99606   1.000
    Mc13    Mc   0.03515   0.17505   0.13934   1.000
    Ts14    Ts   0.89256   0.13797   0.02650   1.000
    Mc15    Mc   0.28514   0.36065   0.32496   1.000
    Mc16    Mc   0.98804   0.50395   0.26142   1.000
    Mc17    Mc   0.27296   0.49620   0.29031   1.000
    Mc18    Mc   0.01107   0.40225   0.35500   1.000
    Ts19    Ts   0.14256   0.47351   0.36204   1.000
    Mc20    Mc   0.51107   0.64502   0.40225   1.000
    Mc21    Mc   0.78513   0.67506   0.36065   1.000
    Mc22    Mc   0.77295   0.70971   0.49619   1.000
    Mc23    Mc   0.48804   0.73856   0.50392   1.000
    Ts24    Ts   0.64255   0.63798   0.47348   1.000
    Mc25    Mc   0.52295   0.79033   0.99620   1.000
    Mc26    Mc   0.26107   0.85502   0.90223   1.000
    Mc27    Mc   0.53514   0.82497   0.86066   1.000
    Mc28    Mc   0.23804   0.76147   0.00379   1.000
    Ts29    Ts   0.39255   0.86205   0.97350   1.000
    Mc30    Mc   0.03515   0.13936   0.82497   1.000
    Mc31    Mc   0.02296   0.00382   0.79032   1.000
    Mc32    Mc   0.76107   0.09776   0.85501   1.000
    Mc33    Mc   0.73804   0.99607   0.76146   1.000
    Ts34    Ts   0.89256   0.02651   0.86203   1.000
    Mc35    Mc   0.98804   0.49607   0.73856   1.000
    Mc36    Mc   0.27296   0.50382   0.70970   1.000
    Mc37    Mc   0.01107   0.59777   0.64501   1.000
    Mc38    Mc   0.28514   0.63937   0.67505   1.000
    Ts39    Ts   0.14256   0.52651   0.63797   1.000
    Mc40    Mc   0.28514   0.32496   0.63934   1.000
    Mc41    Mc   0.27296   0.29032   0.50381   1.000
    Mc42    Mc   0.98804   0.26146   0.49607   1.000
    Mc43    Mc   0.01108   0.35500   0.59776   1.000
    Ts44    Ts   0.14256   0.36204   0.52651   1.000
    Mc45    Mc   0.03514   0.82497   0.86066   1.000
    Mc46    Mc   0.76107   0.85502   0.90223   1.000
    Mc47    Mc   0.73804   0.76147   0.00379   1.000
    Mc48    Mc   0.02296   0.79033   0.99620   1.000
    Ts49    Ts   0.89255   0.86205   0.97350   1.000
    Mc50    Mc   0.26108   0.14501   0.09775   1.000
    Mc51    Mc   0.52296   0.20970   0.00381   1.000
    Mc52    Mc   0.53514   0.17505   0.13934   1.000
    Mc53    Mc   0.23804   0.23855   0.99607   1.000
    Ts54    Ts   0.39256   0.13797   0.02650   1.000
    Mc55    Mc   0.78514   0.36065   0.32496   1.000
    Mc56    Mc   0.48804   0.50395   0.26142   1.000
    Mc57    Mc   0.77295   0.49620   0.29031   1.000
    Mc58    Mc   0.51107   0.40225   0.35500   1.000
    Ts59    Ts   0.64255   0.47351   0.36204   1.000
    Mc60    Mc   0.77295   0.50382   0.70970   1.000
    Mc61    Mc   0.48804   0.49607   0.73856   1.000
    Mc62    Mc   0.51107   0.59777   0.64501   1.000
    Mc63    Mc   0.78514   0.63937   0.67505   1.000
    Ts64    Ts   0.64256   0.52651   0.63797   1.000
    Mc65    Mc   0.48804   0.26146   0.49605   1.000
    Mc66    Mc   0.78514   0.32496   0.63934   1.000
    Mc67    Mc   0.77295   0.29032   0.50382   1.000
    Mc68    Mc   0.51107   0.35500   0.59776   1.000
    Ts69    Ts   0.64256   0.36204   0.52651   1.000
    Mc70    Mc   0.01107   0.64502   0.40225   1.000
    Mc71    Mc   0.27295   0.70970   0.49620   1.000
    Mc72    Mc   0.28514   0.67506   0.36062   1.000
    Mc73    Mc   0.98804   0.73856   0.50395   1.000
    Ts74    Ts   0.14256   0.63798   0.47349   1.000
    Mc75    Mc   0.02296   0.99620   0.20969   1.000
    Mc76    Mc   0.03514   0.86066   0.17504   1.000
    Mc77    Mc   0.76106   0.90226   0.14500   1.000
    Mc78    Mc   0.73803   0.00382   0.23855   1.000
    Ts79    Ts   0.89255   0.97352   0.13794   1.000
