# CIF file generated by openbabel 2.4.90, see http://openbabel.sf.net
data_I
_chemical_name_common ''
_cell_length_a 18.343
_cell_length_b 19.757
_cell_length_c 19.757
_cell_angle_alpha 90
_cell_angle_beta 90
_cell_angle_gamma 89.999
_space_group_name_H-M_alt 'P 1'
_space_group_name_Hall 'P 1'
loop_
    _symmetry_equiv_pos_as_xyz
    x,y,z
loop_
    _atom_site_label
    _atom_site_type_symbol
    _atom_site_fract_x
    _atom_site_fract_y
    _atom_site_fract_z
    _atom_site_occupancy
    C0      C    0.46536   0.17535   0.20303   1.000
    C1      C    0.96535   0.17535   0.20303   1.000
    C2      C    0.30223   0.70289   0.03949   1.000
    C3      C    0.80222   0.70290   0.03900   1.000
    C4      C    0.22143   0.79041   0.85050   1.000
    C5      C    0.72143   0.79041   0.85058   1.000
    C6      C    0.46535   0.82467   0.79698   1.000
    C7      C    0.96535   0.82467   0.79698   1.000
    C8      C    0.05392   0.70937   0.96704   1.000
    C9      C    0.55391   0.70937   0.96704   1.000
    C10     C    0.30224   0.29713   0.96052   1.000
    C11     C    0.80223   0.29713   0.96052   1.000
    C12     C    0.22143   0.20961   0.14944   1.000
    C13     C    0.72143   0.20961   0.14944   1.000
    O14     O    0.11193   0.48311   0.82014   1.000
    O15     O    0.61193   0.48310   0.82013   1.000
    O16     O    0.02215   0.40555   0.81690   1.000
    O17     O    0.52214   0.40555   0.81690   1.000
    O18     O    0.48452   0.65227   0.77308   1.000
    O19     O    0.98451   0.65226   0.77308   1.000
    O20     O    0.42733   0.68652   0.67742   1.000
    O21     O    0.92733   0.68652   0.67742   1.000
    O22     O    0.15013   0.70289   0.69728   1.000
    O23     O    0.65012   0.70289   0.69729   1.000
    C24     C    0.05392   0.29065   0.03297   1.000
    C25     C    0.55391   0.29065   0.03297   1.000
    C26     C    0.30223   0.96052   0.70289   1.000
    C27     C    0.80223   0.96052   0.70289   1.000
    C28     C    0.22144   0.14944   0.79041   1.000
    C29     C    0.72143   0.14944   0.79040   1.000
    C30     C    0.46536   0.20303   0.82467   1.000
    C31     C    0.96535   0.20304   0.82466   1.000
    C32     C    0.05392   0.03298   0.70930   1.000
    C33     C    0.55392   0.03298   0.70930   1.000
    C34     C    0.30224   0.03950   0.29712   1.000
    C35     C    0.80223   0.03950   0.29712   1.000
    C36     C    0.22143   0.85058   0.20961   1.000
    C37     C    0.72142   0.85058   0.20961   1.000
    C38     C    0.46535   0.79699   0.17530   1.000
    C39     C    0.96534   0.79699   0.17534   1.000
    C40     C    0.05391   0.96705   0.29065   1.000
    C41     C    0.55391   0.96704   0.29060   1.000
    C42     C    0.05224   0.20288   0.46051   1.000
    C43     C    0.55223   0.20288   0.46051   1.000
    C44     C    0.47143   0.29040   0.64945   1.000
    C45     C    0.97143   0.29040   0.64945   1.000
    C46     C    0.21536   0.32466   0.70304   1.000
    C47     C    0.71535   0.32466   0.70304   1.000
    C48     C    0.30392   0.20936   0.53298   1.000
    C49     C    0.80391   0.20936   0.53298   1.000
    C50     C    0.05224   0.79713   0.53951   1.000
    C51     C    0.55223   0.79714   0.53950   1.000
    C52     C    0.47143   0.70962   0.35057   1.000
    C53     C    0.97142   0.70962   0.35056   1.000
    C54     C    0.21536   0.67537   0.29697   1.000
    C55     C    0.71535   0.67536   0.29697   1.000
    C56     C    0.30391   0.79066   0.46703   1.000
    C57     C    0.80391   0.79066   0.46703   1.000
    C58     C    0.05224   0.46051   0.79713   1.000
    C59     C    0.55223   0.46051   0.79713   1.000
    C60     C    0.47143   0.64945   0.70962   1.000
    C61     C    0.97142   0.64945   0.70962   1.000
    C62     C    0.21536   0.70305   0.67536   1.000
    C63     C    0.71535   0.70305   0.67536   1.000
    C64     C    0.30392   0.53299   0.79060   1.000
    C65     C    0.80391   0.53299   0.79066   1.000
    C66     C    0.05224   0.53951   0.20288   1.000
    C67     C    0.55223   0.53951   0.20288   1.000
    C68     C    0.47143   0.35057   0.29000   1.000
    C69     C    0.97142   0.35057   0.29000   1.000
    C70     C    0.21536   0.29698   0.32466   1.000
    C71     C    0.71535   0.29698   0.32465   1.000
    C72     C    0.30391   0.46704   0.20930   1.000
    C73     C    0.80391   0.46704   0.20930   1.000
    O74     O    0.36193   0.67989   0.01690   1.000
    O75     O    0.86192   0.67989   0.01690   1.000
    O76     O    0.27214   0.68313   0.09446   1.000
    O77     O    0.77213   0.68313   0.09446   1.000
    O78     O    0.23452   0.72694   0.84776   1.000
    O79     O    0.73451   0.72694   0.84776   1.000
    O80     O    0.17734   0.82261   0.81350   1.000
    O81     O    0.67733   0.82261   0.81350   1.000
    O82     O    0.40013   0.80274   0.79714   1.000
    O83     O    0.90012   0.80274   0.79714   1.000
    O84     O    0.49652   0.84949   0.74489   1.000
    O85     O    0.99651   0.84949   0.74489   1.000
    O86     O    0.10008   0.69185   0.01113   1.000
    O87     O    0.60007   0.69185   0.01113   1.000
    O88     O    0.03484   0.67457   0.91542   1.000
    O89     O    0.53483   0.67457   0.91542   1.000
    O90     O    0.36194   0.32012   0.98311   1.000
    O91     O    0.86193   0.32013   0.98311   1.000
    O92     O    0.27215   0.31689   0.90555   1.000
    O93     O    0.77214   0.31690   0.90550   1.000
    O94     O    0.23452   0.27308   0.15225   1.000
    O95     O    0.73451   0.27308   0.15225   1.000
    O96     O    0.17734   0.17741   0.18651   1.000
    O97     O    0.67733   0.17741   0.18651   1.000
    O98     O    0.40013   0.19728   0.20287   1.000
    O99     O    0.90012   0.19728   0.20287   1.000
    O100    O    0.49652   0.15053   0.25512   1.000
    O101    O    0.99651   0.15052   0.25510   1.000
    O102    O    0.10009   0.30817   0.98888   1.000
    O103    O    0.60008   0.30817   0.98888   1.000
    O104    O    0.03484   0.32545   0.08459   1.000
    O105    O    0.53483   0.32545   0.08459   1.000
    O106    O    0.36194   0.98311   0.67989   1.000
    O107    O    0.86192   0.98312   0.67989   1.000
    O108    O    0.27214   0.90556   0.68313   1.000
    O109    O    0.77213   0.90556   0.68312   1.000
    O110    O    0.23452   0.15226   0.72694   1.000
    O111    O    0.73452   0.15225   0.72694   1.000
    O112    O    0.17734   0.18651   0.82260   1.000
    O113    O    0.67734   0.18651   0.82260   1.000
    O114    O    0.40014   0.20288   0.80273   1.000
    O115    O    0.90012   0.20288   0.80274   1.000
    O116    O    0.49652   0.25512   0.84948   1.000
    O117    O    0.99651   0.25512   0.84900   1.000
    O118    O    0.10008   0.98889   0.69185   1.000
    O119    O    0.60007   0.98888   0.69185   1.000
    O120    O    0.03484   0.08460   0.67457   1.000
    O121    O    0.53483   0.08459   0.67457   1.000
    O122    O    0.36194   0.01691   0.32012   1.000
    O123    O    0.86193   0.01691   0.32012   1.000
    O124    O    0.27214   0.09446   0.31689   1.000
    O125    O    0.77214   0.09446   0.31689   1.000
    O126    O    0.23451   0.84777   0.27307   1.000
    O127    O    0.73451   0.84777   0.27307   1.000
    O128    O    0.17733   0.81351   0.17741   1.000
    O129    O    0.67733   0.81351   0.17741   1.000
    O130    O    0.40013   0.79714   0.19728   1.000
    O131    O    0.90012   0.79714   0.19728   1.000
    O132    O    0.49651   0.74490   0.15052   1.000
    O133    O    0.99651   0.74490   0.15052   1.000
    O134    O    0.10009   0.01114   0.30816   1.000
    O135    O    0.60008   0.01114   0.30816   1.000
    O136    O    0.03483   0.91543   0.32544   1.000
    O137    O    0.53482   0.91543   0.32544   1.000
    O138    O    0.11194   0.17988   0.48310   1.000
    O139    O    0.61194   0.17989   0.48310   1.000
    O140    O    0.02215   0.18312   0.40550   1.000
    O141    O    0.52214   0.18312   0.40554   1.000
    O142    O    0.48452   0.22693   0.65226   1.000
    O143    O    0.98451   0.22693   0.65226   1.000
    O144    O    0.42734   0.32260   0.68652   1.000
    O145    O    0.92733   0.32260   0.68652   1.000
    O146    O    0.15014   0.30273   0.70280   1.000
    O147    O    0.65013   0.30273   0.70288   1.000
    O148    O    0.24652   0.34948   0.75513   1.000
    O149    O    0.74652   0.34949   0.75513   1.000
    O150    O    0.35009   0.19184   0.48887   1.000
    O151    O    0.85008   0.19184   0.48887   1.000
    O152    O    0.28484   0.17457   0.58460   1.000
    O153    O    0.78483   0.17456   0.58460   1.000
    O154    O    0.11193   0.82014   0.51691   1.000
    O155    O    0.61193   0.82013   0.51691   1.000
    O156    O    0.02214   0.81691   0.59440   1.000
    O157    O    0.52214   0.81690   0.59447   1.000
    O158    O    0.48451   0.77309   0.34775   1.000
    O159    O    0.98451   0.77309   0.34775   1.000
    O160    O    0.42733   0.67742   0.31349   1.000
    O161    O    0.92733   0.67742   0.31349   1.000
    O162    O    0.15013   0.69729   0.29713   1.000
    O163    O    0.65013   0.69730   0.29713   1.000
    O164    O    0.24652   0.65053   0.24489   1.000
    O165    O    0.74651   0.65054   0.24488   1.000
    O166    O    0.35008   0.80818   0.51114   1.000
    O167    O    0.85007   0.80818   0.51114   1.000
    O168    O    0.28483   0.82546   0.41541   1.000
    O169    O    0.78482   0.82546   0.41541   1.000
    O170    O    0.24652   0.75513   0.65052   1.000
    O171    O    0.74651   0.75513   0.65053   1.000
    O172    O    0.35008   0.48888   0.80817   1.000
    O173    O    0.85008   0.48887   0.80817   1.000
    O174    O    0.28484   0.58461   0.82545   1.000
    O175    O    0.78483   0.58460   0.82545   1.000
    O176    O    0.11194   0.51692   0.17988   1.000
    O177    O    0.61193   0.51692   0.17988   1.000
    O178    O    0.02214   0.59447   0.18311   1.000
    O179    O    0.52214   0.59447   0.18311   1.000
    O180    O    0.48452   0.34776   0.22693   1.000
    O181    O    0.98451   0.34776   0.22693   1.000
    O182    O    0.42734   0.31350   0.32259   1.000
    O183    O    0.92733   0.31350   0.32259   1.000
    O184    O    0.15014   0.29713   0.30272   1.000
    O185    O    0.65013   0.29713   0.30272   1.000
    O186    O    0.24652   0.24489   0.34948   1.000
    O187    O    0.74652   0.24489   0.34948   1.000
    O188    O    0.35008   0.51115   0.19184   1.000
    O189    O    0.85007   0.51115   0.19184   1.000
    O190    O    0.28483   0.41542   0.17456   1.000
    O191    O    0.78483   0.41542   0.17456   1.000
loop_
    _geom_bond_atom_site_label_1
    _geom_bond_atom_site_label_2
    _geom_bond_distance
    _geom_bond_site_symmetry_2
    _ccdc_geom_bond_type
    O87    C9        1.26312  1_554   S
    O86    C8        1.26312  1_554   S
    O74    C2        1.26685      .   S
    O75    C3        1.26346      .   S
    C25    O105      1.27876      .   S
    C25    O103      1.26325  1_554   S
    C24    O104      1.27875      .   S
    C24    O102      1.26326  1_554   S
    C3     O77       1.28760      .   S
    C2     O76       1.27934      .   S
    C13    O95       1.27791      .   S
    C13    O97       1.26305      .   S
    C12    O94       1.27791      .   S
    C12    O96       1.26304      .   S
    O132   C38       1.27492      .   S
    O133   C39       1.27525      .   S
    O191   C73       1.27813      .   S
    O190   C72       1.27813      .   S
    C38    O130      1.27280      .   S
    C39    O131      1.27249      .   S
    O128   C36       1.26307      .   S
    O129   C37       1.26306      .   S
    O177   C67       1.26689      .   S
    O176   C66       1.26687      .   S
    O179   C67       1.27925      .   S
    O178   C66       1.27925      .   S
    O188   C72       1.26320      .   S
    O189   C73       1.26319      .   S
    O99    C1        1.27248      .   S
    O98    C0        1.27247      .   S
    C1     O101      1.27501      .   S
    C0     O100      1.27532      .   S
    C36    O126      1.27776      .   S
    C37    O127      1.27775      .   S
    O181   C69       1.27019      .   S
    O180   C68       1.27020      .   S
    O165   C55       1.27529      .   S
    O164   C54       1.27523      .   S
    C69    O183      1.26696      .   S
    C68    O182      1.26696      .   S
    C41    O135      1.26357  1_565   S
    C41    O137      1.27917      .   S
    C40    O134      1.26328  1_565   S
    C40    O136      1.27868      .   S
    C55    O163      1.27248      .   S
    C54    O162      1.27248      .   S
    C34    O124      1.27926      .   S
    C34    O122      1.26690      .   S
    C35    O125      1.27923      .   S
    C35    O123      1.26684      .   S
    O184   C70       1.27251      .   S
    O185   C71       1.27248      .   S
    O160   C52       1.26315      .   S
    O161   C53       1.26303      .   S
    C71    O187      1.27530      .   S
    C70    O186      1.27524      .   S
    O158   C52       1.27792      .   S
    O159   C53       1.27791      .   S
    O140   C42       1.28002      .   S
    O141   C43       1.27935      .   S
    O168   C56       1.27872      .   S
    O169   C57       1.27878      .   S
    C43    O139      1.26685      .   S
    C42    O138      1.26685      .   S
    C56    O166      1.26350      .   S
    C57    O167      1.26344      .   S
    O151   C49       1.26345      .   S
    O150   C48       1.26347      .   S
    O155   C51       1.26686      .   S
    O154   C50       1.26683      .   S
    C49    O153      1.27876      .   S
    C48    O152      1.27873      .   S
    C51    O157      1.27932      .   S
    C50    O156      1.27811      .   S
    C45    O143      1.27790      .   S
    C45    O145      1.26306      .   S
    C44    O142      1.27791      .   S
    C44    O144      1.26305      .   S
    O170   C62       1.27528      .   S
    O171   C63       1.27528      .   S
    O120   C32       1.27802      .   S
    O121   C33       1.27801      .   S
    C63    O23       1.27250      .   S
    C62    O22       1.27248      .   S
    O21    C61       1.26306      .   S
    O20    C60       1.26307      .   S
    O106   C26       1.26690      .   S
    O107   C27       1.26683      .   S
    O109   C27       1.27921      .   S
    O108   C26       1.27922      .   S
    O119   C33       1.26273  1_565   S
    O118   C32       1.26276  1_565   S
    O146   C46       1.27248      .   S
    O147   C47       1.27249      .   S
    C46    O148      1.27532      .   S
    C47    O149      1.27532      .   S
    C61    O19       1.27777      .   S
    C60    O18       1.27776      .   S
    O110   C28       1.27794      .   S
    O111   C29       1.27776      .   S
    O85    C7        1.27529      .   S
    O84    C6        1.27528      .   S
    C29    O113      1.26306      .   S
    C28    O112      1.26298      .   S
    C64    O172      1.26378      .   S
    C64    O174      1.27930      .   S
    C65    O173      1.26345      .   S
    C65    O175      1.27864      .   S
    C7     O83       1.27248      .   S
    C6     O82       1.27250      .   S
    C59    O17       1.27924      .   S
    C59    O15       1.26684      .   S
    C58    O16       1.27918      .   S
    C58    O14       1.26685      .   S
    O114   C30       1.27248      .   S
    O115   C31       1.27246      .   S
    O81    C5        1.26315      .   S
    O80    C4        1.26224      .   S
    C31    O117      1.27155      .   S
    C30    O116      1.27521      .   S
    O79    C5        1.27792      .   S
    O78    C4        1.27786      .   S
    O93    C11       1.28020      .   S
    O92    C10       1.27931      .   S
    O88    C8        1.27876      .   S
    O89    C9        1.27876      .   S
    C10    O90       1.26686      .   S
    C11    O91       1.26684      .   S
