# CIF file generated by openbabel 2.4.90, see http://openbabel.sf.net
data_I
_chemical_name_common ''
_cell_length_a 18.343
_cell_length_b 19.757
_cell_length_c 19.757
_cell_angle_alpha 90
_cell_angle_beta 90
_cell_angle_gamma 89.999
_space_group_name_H-M_alt 'P 1'
_space_group_name_Hall 'P 1'
loop_
    _symmetry_equiv_pos_as_xyz
    x,y,z
loop_
    _atom_site_label
    _atom_site_type_symbol
    _atom_site_fract_x
    _atom_site_fract_y
    _atom_site_fract_z
    _atom_site_occupancy
    Zr0     Zr   0.38345   0.81542   0.64744   1.000
    Zr1     Zr   0.88344   0.81542   0.64743   1.000
    Zr2     Zr   0.38264   0.68535   0.87615   1.000
    Zr3     Zr   0.88264   0.68535   0.87615   1.000
    Zr4     Zr   0.38345   0.18460   0.35257   1.000
    Zr5     Zr   0.88344   0.18460   0.35250   1.000
    Zr6     Zr   0.38264   0.31467   0.12386   1.000
    Zr7     Zr   0.88264   0.31467   0.12386   1.000
    Zr8     Zr   0.38345   0.35258   0.81542   1.000
    Zr9     Zr   0.88344   0.35258   0.81542   1.000
    Zr10    Zr   0.38265   0.12386   0.68535   1.000
    Zr11    Zr   0.88264   0.12386   0.68535   1.000
    Zr12    Zr   0.38344   0.64744   0.18460   1.000
    Zr13    Zr   0.88344   0.64744   0.18400   1.000
    Zr14    Zr   0.38264   0.87616   0.31466   1.000
    Zr15    Zr   0.88263   0.87616   0.31466   1.000
    Zr16    Zr   0.13345   0.31541   0.85259   1.000
    Zr17    Zr   0.63345   0.31541   0.85250   1.000
    Zr18    Zr   0.13265   0.18534   0.62387   1.000
    Zr19    Zr   0.63264   0.18534   0.62387   1.000
    Zr20    Zr   0.13345   0.68461   0.14743   1.000
    Zr21    Zr   0.63344   0.68461   0.14743   1.000
    Zr22    Zr   0.13264   0.81468   0.37614   1.000
    Zr23    Zr   0.63264   0.81468   0.37614   1.000
    Zr24    Zr   0.13345   0.85259   0.68460   1.000
    Zr25    Zr   0.63344   0.85259   0.68460   1.000
    Zr26    Zr   0.13264   0.62387   0.81467   1.000
    Zr27    Zr   0.63264   0.62387   0.81467   1.000
    Zr28    Zr   0.13345   0.14743   0.31540   1.000
    Zr29    Zr   0.63344   0.14743   0.31541   1.000
    Zr30    Zr   0.13265   0.37615   0.18534   1.000
    Zr31    Zr   0.63264   0.37615   0.18534   1.000
    N32     N    0.47013   0.92241   0.19795   1.000
    N33     N    0.30725   0.95115   0.20597   1.000
    O34     O    0.35642   0.96685   0.16648   1.000
    N35     N    0.47014   0.07761   0.80206   1.000
    N36     N    0.30726   0.04887   0.79404   1.000
    O37     O    0.42560   0.04933   0.83920   1.000
    N38     N    0.97013   0.19796   0.07760   1.000
    N39     N    0.80725   0.20598   0.04886   1.000
    O40     O    0.85642   0.16650   0.03316   1.000
    N41     N    0.22013   0.42240   0.30205   1.000
    N42     N    0.05726   0.45114   0.29403   1.000
    O43     O    0.17560   0.45069   0.33919   1.000
    N44     N    0.55725   0.70599   0.45114   1.000
    N45     N    0.72013   0.69796   0.42240   1.000
    O46     O    0.67559   0.66083   0.45067   1.000
    N47     N    0.30726   0.79404   0.95115   1.000
    N48     N    0.47013   0.80207   0.92241   1.000
    O49     O    0.35642   0.83352   0.96684   1.000
    N50     N    0.80726   0.04887   0.79404   1.000
    N51     N    0.97013   0.07761   0.80206   1.000
    O52     O    0.92560   0.04933   0.83918   1.000
    N53     N    0.05726   0.54888   0.70598   1.000
    N54     N    0.22013   0.57762   0.69796   1.000
    O55     O    0.10643   0.53318   0.66650   1.000
    N56     N    0.22014   0.30206   0.57761   1.000
    N57     N    0.05726   0.29403   0.54880   1.000
    O58     O    0.17560   0.33919   0.54933   1.000
    N59     N    0.97012   0.80207   0.92241   1.000
    N60     N    0.80725   0.79404   0.95115   1.000
    O61     O    0.85642   0.83352   0.96684   1.000
    N62     N    0.47013   0.19795   0.07760   1.000
    N63     N    0.30726   0.20598   0.04886   1.000
    O64     O    0.42560   0.16082   0.04932   1.000
    N65     N    0.72013   0.42240   0.30205   1.000
    N66     N    0.55725   0.45114   0.29403   1.000
    O67     O    0.60642   0.46684   0.33351   1.000
    N68     N    0.55726   0.54888   0.70598   1.000
    N69     N    0.72013   0.57762   0.69796   1.000
    O70     O    0.60642   0.53318   0.66650   1.000
    N71     N    0.72013   0.30206   0.57761   1.000
    N72     N    0.55726   0.29403   0.54887   1.000
    O73     O    0.60642   0.33351   0.53317   1.000
    N74     N    0.22013   0.69797   0.42240   1.000
    N75     N    0.05726   0.70598   0.45114   1.000
    O76     O    0.10643   0.66651   0.46683   1.000
    N77     N    0.80724   0.95115   0.20597   1.000
    N78     N    0.97012   0.92241   0.19795   1.000
    O79     O    0.85641   0.96685   0.16648   1.000
    C80     C    0.81209   0.94973   0.68863   1.000
    O81     O    0.78602   0.96890   0.71731   1.000
    O82     O    0.75744   0.91440   0.68625   1.000
    O83     O    0.81994   0.90511   0.67695   1.000
    O84     O    0.84219   0.00161   0.68563   1.000
    C85     C    0.95399   0.82563   0.77967   1.000
    O86     O    0.98285   0.82480   0.81233   1.000
    O87     O    0.92269   0.78484   0.80816   1.000
    O88     O    0.92289   0.81736   0.75098   1.000
    O89     O    0.94698   0.82905   0.73792   1.000
    O90     O    0.00949   0.83834   0.74721   1.000
    C91     C    0.96109   0.27998   0.66274   1.000
    O92     O    0.98132   0.30665   0.63659   1.000
    O93     O    0.93324   0.30878   0.70686   1.000
    O94     O    0.94733   0.22769   0.66577   1.000
    O95     O    0.00983   0.24306   0.65040   1.000
    C96     C    0.71109   0.22003   0.16273   1.000
    O97     O    0.73131   0.19336   0.13657   1.000
    O98     O    0.68324   0.19123   0.20685   1.000
    O99     O    0.75983   0.25695   0.15039   1.000
    O100    O    0.69733   0.27232   0.16576   1.000
    C101    C    0.95399   0.77968   0.17438   1.000
    O102    O    0.98285   0.81234   0.17522   1.000
    O103    O    0.94698   0.73792   0.17082   1.000
    O104    O    0.00948   0.74721   0.16168   1.000
    O105    O    0.92268   0.80816   0.21518   1.000
    O106    O    0.92288   0.75098   0.18251   1.000
    C107    C    0.56210   0.81139   0.55029   1.000
    O108    O    0.53602   0.78272   0.53111   1.000
    O109    O    0.50744   0.81378   0.58562   1.000
    O110    O    0.56994   0.82307   0.59491   1.000
    O111    O    0.59219   0.81440   0.49841   1.000
    C112    C    0.20401   0.27967   0.32562   1.000
    O113    O    0.25950   0.24720   0.33832   1.000
    O114    O    0.19700   0.23791   0.32903   1.000
    O115    O    0.23286   0.31233   0.32478   1.000
    O116    O    0.17270   0.30815   0.28483   1.000
    O117    O    0.17290   0.25097   0.31734   1.000
    C118    C    0.21110   0.16274   0.77998   1.000
    O119    O    0.23132   0.13658   0.80666   1.000
    O120    O    0.25984   0.15040   0.74306   1.000
    O121    O    0.19734   0.16577   0.72769   1.000
    O122    O    0.18325   0.20685   0.80879   1.000
    C123    C    0.70400   0.67440   0.27966   1.000
    O124    O    0.73285   0.67523   0.31232   1.000
    O125    O    0.75949   0.66169   0.24705   1.000
    O126    O    0.69699   0.67099   0.23791   1.000
    O127    O    0.67269   0.71519   0.30815   1.000
    O128    O    0.67289   0.68267   0.25097   1.000
    C129    C    0.96108   0.72004   0.33727   1.000
    O130    O    0.93323   0.69124   0.29301   1.000
    O131    O    0.94733   0.77233   0.33424   1.000
    O132    O    0.00983   0.75696   0.34961   1.000
    O133    O    0.98131   0.69337   0.36342   1.000
    C134    C    0.46109   0.33728   0.27984   1.000
    O135    O    0.48132   0.36343   0.30653   1.000
    O136    O    0.44734   0.33424   0.22762   1.000
    O137    O    0.50984   0.34961   0.24299   1.000
    O138    O    0.43324   0.29316   0.30871   1.000
    C139    C    0.70400   0.32562   0.72035   1.000
    O140    O    0.73285   0.32479   0.68768   1.000
    O141    O    0.67269   0.28483   0.69186   1.000
    O142    O    0.67289   0.31735   0.74902   1.000
    O143    O    0.75949   0.33833   0.75281   1.000
    O144    O    0.69699   0.32904   0.76208   1.000
    C145    C    0.96109   0.66275   0.72004   1.000
    O146    O    0.93323   0.70686   0.69123   1.000
    O147    O    0.94733   0.66578   0.77233   1.000
    O148    O    0.00983   0.65041   0.75696   1.000
    O149    O    0.98131   0.63659   0.69337   1.000
    C150    C    0.81210   0.31138   0.94971   1.000
    O151    O    0.78603   0.28271   0.96889   1.000
    O152    O    0.84219   0.31439   0.00160   1.000
    O153    O    0.75745   0.31377   0.91436   1.000
    O154    O    0.81995   0.32306   0.90509   1.000
    C155    C    0.45400   0.82563   0.77967   1.000
    O156    O    0.42269   0.78484   0.80816   1.000
    O157    O    0.42289   0.81736   0.75098   1.000
    O158    O    0.48285   0.82480   0.81233   1.000
    O159    O    0.44699   0.82904   0.73792   1.000
    O160    O    0.50949   0.83834   0.74721   1.000
    C161    C    0.06210   0.81140   0.55027   1.000
    O162    O    0.09219   0.81440   0.49840   1.000
    O163    O    0.00744   0.81378   0.58559   1.000
    O164    O    0.06995   0.82307   0.59489   1.000
    O165    O    0.03603   0.78272   0.53111   1.000
    C166    C    0.81294   0.19192   0.53548   1.000
    O167    O    0.82334   0.17057   0.58523   1.000
    O168    O    0.76084   0.18594   0.56986   1.000
    O169    O    0.79627   0.22962   0.52567   1.000
    O170    O    0.83985   0.19007   0.47808   1.000
    C171    C    0.31294   0.53549   0.80807   1.000
    O172    O    0.29628   0.52567   0.77038   1.000
    O173    O    0.32334   0.58523   0.82944   1.000
    O174    O    0.26084   0.56986   0.81407   1.000
    O175    O    0.33986   0.47811   0.80993   1.000
    C176    C    0.06295   0.30809   0.03548   1.000
    O177    O    0.04628   0.27039   0.02566   1.000
    O178    O    0.01084   0.31407   0.06985   1.000
    O179    O    0.07334   0.32944   0.08522   1.000
    O180    O    0.08986   0.30994   0.97811   1.000
    C181    C    0.31211   0.05029   0.31138   1.000
    O182    O    0.34220   0.99841   0.31438   1.000
    O183    O    0.28603   0.03104   0.28270   1.000
    O184    O    0.25745   0.08562   0.31376   1.000
    O185    O    0.31995   0.09491   0.32305   1.000
    C186    C    0.71109   0.16274   0.77998   1.000
    O187    O    0.75984   0.15040   0.74306   1.000
    O188    O    0.69734   0.16577   0.72769   1.000
    O189    O    0.73132   0.13658   0.80666   1.000
    O190    O    0.68324   0.20685   0.80877   1.000
    C191    C    0.31295   0.19192   0.53548   1.000
    O192    O    0.32335   0.17057   0.58523   1.000
    O193    O    0.26085   0.18594   0.56986   1.000
    O194    O    0.29628   0.22962   0.52567   1.000
    O195    O    0.33986   0.19007   0.47810   1.000
    C196    C    0.31211   0.31138   0.94973   1.000
    O197    O    0.28603   0.28271   0.96890   1.000
    O198    O    0.25745   0.31377   0.91440   1.000
    O199    O    0.31995   0.32306   0.90511   1.000
    O200    O    0.34220   0.31439   0.00161   1.000
    C201    C    0.56210   0.44972   0.81139   1.000
    O202    O    0.53603   0.46890   0.78271   1.000
    O203    O    0.59219   0.50161   0.81439   1.000
    O204    O    0.50745   0.41439   0.81377   1.000
    O205    O    0.56995   0.40510   0.82304   1.000
    C206    C    0.20400   0.67439   0.27966   1.000
    O207    O    0.17269   0.71519   0.30815   1.000
    O208    O    0.17289   0.68267   0.25097   1.000
    O209    O    0.25949   0.66169   0.24720   1.000
    O210    O    0.19699   0.67098   0.23791   1.000
    O211    O    0.23286   0.67523   0.31231   1.000
    C212    C    0.95400   0.17439   0.22033   1.000
    O213    O    0.98286   0.17522   0.18767   1.000
    O214    O    0.92269   0.21518   0.19185   1.000
    O215    O    0.92289   0.18266   0.24901   1.000
    O216    O    0.94699   0.17097   0.26207   1.000
    O217    O    0.00949   0.16168   0.25279   1.000
    C218    C    0.45401   0.22035   0.82563   1.000
    O219    O    0.42270   0.19186   0.78483   1.000
    O220    O    0.42290   0.24904   0.81735   1.000
    O221    O    0.48286   0.18769   0.82479   1.000
    O222    O    0.44700   0.26210   0.82904   1.000
    O223    O    0.50950   0.25281   0.83831   1.000
    C224    C    0.81210   0.05029   0.31138   1.000
    O225    O    0.75745   0.08562   0.31376   1.000
    O226    O    0.81994   0.09491   0.32304   1.000
    O227    O    0.78602   0.03104   0.28270   1.000
    O228    O    0.84219   0.99841   0.31438   1.000
    C229    C    0.31210   0.94973   0.68864   1.000
    O230    O    0.28603   0.96890   0.71731   1.000
    O231    O    0.25745   0.91440   0.68625   1.000
    O232    O    0.31995   0.90511   0.67696   1.000
    O233    O    0.34220   0.00161   0.68563   1.000
    C234    C    0.56210   0.55030   0.18862   1.000
    O235    O    0.53603   0.53113   0.21729   1.000
    O236    O    0.59219   0.49842   0.18562   1.000
    O237    O    0.50744   0.58563   0.18624   1.000
    O238    O    0.56994   0.59492   0.17695   1.000
    C239    C    0.06211   0.44972   0.81139   1.000
    O240    O    0.00745   0.41439   0.81378   1.000
    O241    O    0.06995   0.40510   0.82307   1.000
    O242    O    0.09220   0.50161   0.81440   1.000
    O243    O    0.03603   0.46889   0.78271   1.000
    C244    C    0.81293   0.80810   0.46453   1.000
    O245    O    0.82333   0.82945   0.41478   1.000
    O246    O    0.76083   0.81408   0.43015   1.000
    O247    O    0.83984   0.80995   0.52191   1.000
    O248    O    0.79627   0.77040   0.47434   1.000
    C249    C    0.06295   0.69193   0.96453   1.000
    O250    O    0.01084   0.68595   0.93016   1.000
    O251    O    0.07334   0.67058   0.91479   1.000
    O252    O    0.08985   0.69008   0.02190   1.000
    O253    O    0.04628   0.72963   0.97434   1.000
    C254    C    0.56210   0.18863   0.44972   1.000
    O255    O    0.53603   0.21730   0.46889   1.000
    O256    O    0.50745   0.18624   0.41439   1.000
    O257    O    0.56995   0.17695   0.40510   1.000
    O258    O    0.59220   0.18562   0.50160   1.000
    C259    C    0.70400   0.27967   0.32562   1.000
    O260    O    0.67269   0.30815   0.28482   1.000
    O261    O    0.67289   0.25097   0.31734   1.000
    O262    O    0.75949   0.24720   0.33830   1.000
    O263    O    0.69699   0.23791   0.32903   1.000
    O264    O    0.73285   0.31233   0.32478   1.000
    C265    C    0.56294   0.30809   0.03548   1.000
    O266    O    0.54627   0.27039   0.02567   1.000
    O267    O    0.51084   0.31407   0.06985   1.000
    O268    O    0.57334   0.32944   0.08522   1.000
    O269    O    0.58985   0.30994   0.97809   1.000
    C270    C    0.81209   0.68864   0.05012   1.000
    O271    O    0.75744   0.68625   0.08553   1.000
    O272    O    0.81994   0.67696   0.09468   1.000
    O273    O    0.78602   0.71731   0.03088   1.000
    O274    O    0.84219   0.68563   0.99832   1.000
    C275    C    0.56294   0.03548   0.69191   1.000
    O276    O    0.58985   0.97811   0.69007   1.000
    O277    O    0.54628   0.02567   0.72961   1.000
    O278    O    0.51084   0.06986   0.68593   1.000
    O279    O    0.57334   0.08523   0.67056   1.000
    C280    C    0.70400   0.72036   0.67439   1.000
    O281    O    0.67269   0.69187   0.71519   1.000
    O282    O    0.67289   0.74905   0.68267   1.000
    O283    O    0.73285   0.68770   0.67523   1.000
    O284    O    0.75948   0.75282   0.66169   1.000
    O285    O    0.69699   0.76211   0.67098   1.000
    C286    C    0.45400   0.17439   0.22034   1.000
    O287    O    0.42270   0.21518   0.19185   1.000
    O288    O    0.42290   0.18266   0.24903   1.000
    O289    O    0.48286   0.17522   0.18768   1.000
    O290    O    0.44699   0.17097   0.26209   1.000
    O291    O    0.50949   0.16168   0.25280   1.000
    C292    C    0.81294   0.46453   0.19190   1.000
    O293    O    0.79627   0.47435   0.22960   1.000
    O294    O    0.82333   0.41479   0.17056   1.000
    O295    O    0.76083   0.43016   0.18593   1.000
    O296    O    0.83985   0.52191   0.18991   1.000
    C297    C    0.21109   0.83729   0.22003   1.000
    O298    O    0.18324   0.79317   0.19123   1.000
    O299    O    0.23132   0.86344   0.19335   1.000
    O300    O    0.25983   0.84962   0.25695   1.000
    O301    O    0.19733   0.83425   0.27232   1.000
    C302    C    0.06211   0.55030   0.18862   1.000
    O303    O    0.03603   0.53113   0.21729   1.000
    O304    O    0.00745   0.58563   0.18609   1.000
    O305    O    0.06995   0.59492   0.17695   1.000
    O306    O    0.09220   0.49842   0.18562   1.000
    C307    C    0.45400   0.77968   0.17437   1.000
    O308    O    0.42269   0.80816   0.21517   1.000
    O309    O    0.42289   0.75098   0.18265   1.000
    O310    O    0.48285   0.81234   0.17521   1.000
    O311    O    0.44699   0.73792   0.17096   1.000
    O312    O    0.50949   0.74721   0.16167   1.000
    C313    C    0.06294   0.96454   0.30808   1.000
    O314    O    0.01084   0.93016   0.31407   1.000
    O315    O    0.07334   0.91479   0.32944   1.000
    O316    O    0.08986   0.02191   0.30993   1.000
    O317    O    0.04628   0.97435   0.27038   1.000
    C318    C    0.46109   0.66275   0.72004   1.000
    O319    O    0.48132   0.63659   0.69337   1.000
    O320    O    0.43324   0.70686   0.69124   1.000
    O321    O    0.44734   0.66578   0.77233   1.000
    O322    O    0.50983   0.65041   0.75696   1.000
    C323    C    0.56294   0.96454   0.30807   1.000
    O324    O    0.54627   0.97435   0.27037   1.000
    O325    O    0.58985   0.02191   0.30993   1.000
    O326    O    0.51083   0.93016   0.31406   1.000
    O327    O    0.57333   0.91479   0.32943   1.000
    C328    C    0.20400   0.72035   0.67439   1.000
    O329    O    0.17269   0.69187   0.71518   1.000
    O330    O    0.17289   0.74905   0.68266   1.000
    O331    O    0.25949   0.75281   0.66168   1.000
    O332    O    0.19699   0.76211   0.67097   1.000
    O333    O    0.23286   0.68769   0.67523   1.000
    C334    C    0.20401   0.32562   0.72032   1.000
    O335    O    0.23286   0.32479   0.68767   1.000
    O336    O    0.17270   0.28483   0.69183   1.000
    O337    O    0.17290   0.31735   0.74901   1.000
    O338    O    0.25950   0.33833   0.75280   1.000
    O339    O    0.19700   0.32904   0.76209   1.000
    C340    C    0.71109   0.83729   0.22003   1.000
    O341    O    0.73131   0.86344   0.19336   1.000
    O342    O    0.68324   0.79317   0.19123   1.000
    O343    O    0.75983   0.84962   0.25695   1.000
    O344    O    0.69733   0.83425   0.27232   1.000
    C345    C    0.95400   0.22035   0.82547   1.000
    O346    O    0.92269   0.19186   0.78476   1.000
    O347    O    0.92289   0.24904   0.81727   1.000
    O348    O    0.98286   0.18769   0.82471   1.000
    O349    O    0.94699   0.26210   0.82884   1.000
    O350    O    0.00949   0.25281   0.83813   1.000
    C351    C    0.46110   0.27998   0.66274   1.000
    O352    O    0.43324   0.30878   0.70686   1.000
    O353    O    0.44734   0.22769   0.66577   1.000
    O354    O    0.50984   0.24306   0.65040   1.000
    O355    O    0.48132   0.30665   0.63659   1.000
    C356    C    0.96109   0.33728   0.27984   1.000
    O357    O    0.98131   0.36343   0.30653   1.000
    O358    O    0.93324   0.29316   0.30869   1.000
    O359    O    0.94733   0.33424   0.22762   1.000
    O360    O    0.00983   0.34961   0.24299   1.000
    C361    C    0.31210   0.68864   0.05028   1.000
    O362    O    0.25745   0.68625   0.08561   1.000
    O363    O    0.31995   0.67696   0.09491   1.000
    O364    O    0.34219   0.68563   0.99840   1.000
    O365    O    0.28603   0.71731   0.03103   1.000
    C366    C    0.46109   0.72004   0.33727   1.000
    O367    O    0.44733   0.77233   0.33424   1.000
    O368    O    0.50983   0.75696   0.34961   1.000
    O369    O    0.48132   0.69337   0.36343   1.000
    O370    O    0.43324   0.69124   0.29316   1.000
    C371    C    0.31294   0.46453   0.19190   1.000
    O372    O    0.32334   0.41479   0.17056   1.000
    O373    O    0.26084   0.43016   0.18593   1.000
    O374    O    0.29628   0.47435   0.22960   1.000
    O375    O    0.33985   0.52191   0.19006   1.000
    C376    C    0.56294   0.69193   0.96453   1.000
    O377    O    0.51084   0.68595   0.93016   1.000
    O378    O    0.57334   0.67058   0.91479   1.000
    O379    O    0.58985   0.69008   0.02191   1.000
    O380    O    0.54627   0.72963   0.97434   1.000
    C381    C    0.21110   0.77999   0.83725   1.000
    O382    O    0.25984   0.74307   0.84960   1.000
    O383    O    0.19734   0.72770   0.83423   1.000
    O384    O    0.23132   0.80666   0.86340   1.000
    O385    O    0.18324   0.80879   0.79315   1.000
    C386    C    0.21110   0.22003   0.16273   1.000
    O387    O    0.25984   0.25695   0.15039   1.000
    O388    O    0.19734   0.27232   0.16576   1.000
    O389    O    0.18325   0.19123   0.20684   1.000
    O390    O    0.23132   0.19336   0.13658   1.000
    C391    C    0.81294   0.53549   0.80809   1.000
    O392    O    0.83985   0.47811   0.80994   1.000
    O393    O    0.79627   0.52568   0.77039   1.000
    O394    O    0.82333   0.58523   0.82945   1.000
    O395    O    0.76084   0.56986   0.81408   1.000
    C396    C    0.31294   0.80810   0.46453   1.000
    O397    O    0.33985   0.80995   0.52191   1.000
    O398    O    0.29627   0.77040   0.47434   1.000
    O399    O    0.32334   0.82945   0.41478   1.000
    O400    O    0.26084   0.81408   0.43015   1.000
    C401    C    0.06211   0.18863   0.44970   1.000
    O402    O    0.03603   0.21730   0.46888   1.000
    O403    O    0.09220   0.18562   0.50159   1.000
    O404    O    0.00745   0.18624   0.41435   1.000
    O405    O    0.06995   0.17695   0.40508   1.000
    C406    C    0.71109   0.77999   0.83728   1.000
    O407    O    0.75983   0.74307   0.84962   1.000
    O408    O    0.69733   0.72770   0.83425   1.000
    O409    O    0.73131   0.80666   0.86342   1.000
    O410    O    0.68324   0.80879   0.79317   1.000
    C411    C    0.06295   0.03549   0.69191   1.000
    O412    O    0.04628   0.02567   0.72961   1.000
    O413    O    0.01085   0.06986   0.68593   1.000
    O414    O    0.07335   0.08523   0.67056   1.000
    O415    O    0.08986   0.97811   0.69007   1.000
loop_
    _geom_bond_atom_site_label_1
    _geom_bond_atom_site_label_2
    _geom_bond_distance
    _geom_bond_site_symmetry_2
    _ccdc_geom_bond_type
    N32    O34       2.34681      .   S
    N33    O34       1.23221      .   S
    N36    O37       2.34693      .   S
    N35    O37       1.23200      .   S
    N38    O40       2.34678      .   S
    N39    O40       1.23207      .   S
    N42    O43       2.34693      .   S
    N41    O43       1.23201      .   S
    N44    O46       2.34695      .   S
    N45    O46       1.23184      .   S
    N48    O49       2.34673      .   S
    N47    O49       1.23203      .   S
    N50    O52       2.34676      .   S
    N51    O52       1.23177      .   S
    N54    O55       2.34683      .   S
    N53    O55       1.23208      .   S
    N57    O58       2.34694      .   S
    N56    O58       1.23195      .   S
    N59    O61       2.34671      .   S
    N60    O61       1.23201      .   S
    N63    O64       2.34696      .   S
    N62    O64       1.23191      .   S
    N65    O67       2.34681      .   S
    N66    O67       1.23206      .   S
    N69    O70       2.34681      .   S
    N68    O70       1.23209      .   S
    N71    O73       2.34677      .   S
    N72    O73       1.23206      .   S
    N74    O76       2.34676      .   S
    N75    O76       1.23200      .   S
    N78    O79       2.34681      .   S
    N77    O79       1.23219      .   S
    C80    O81       0.83246      .   S
    N50    O81       2.22400  1_545   S
    C80    O82       1.22249      .   S
    Zr25   O82       2.58188      .   S
    C80    O83       0.92256      .   S
    Zr1    O83       2.19926      .   S
    C80    O84       1.16568  1_565   S
    Zr11   O84       2.52676      .   S
    C85    O86       0.83479      .   S
    N59    O86       2.23296      .   S
    C85    O87       1.13849      .   S
    Zr3    O87       2.49153      .   S
    C85    O88       0.82078      .   S
    Zr1    O88       2.17035      .   S
    C85    O89       0.83763      .   S
    Zr1    O89       2.15108      .   S
    C85    O90       1.22900  1_655   S
    Zr24   O90       2.60374      .   S
    C91    O92       0.82611      .   S
    N57    O92       2.23852  1_455   S
    C91    O93       1.15953      .   S
    Zr9    O93       2.48669      .   S
    C91    O94       1.06515      .   S
    Zr11   O94       2.40114      .   S
    C91    O95       1.17939  1_655   S
    Zr18   O95       2.57877      .   S
    C96    O97       0.82612      .   S
    N39    O97       2.23729      .   S
    C96    O98       1.15952      .   S
    Zr29   O98       2.48668      .   S
    C96    O99       1.17935      .   S
    Zr7    O99       2.57862      .   S
    C96    O100      1.06513      .   S
    Zr31   O100      2.40109      .   S
    C101   O102      0.83479      .   S
    N78    O102      2.23292      .   S
    C101   O103      0.83783      .   S
    Zr13   O103      2.14992      .   S
    C101   O104      1.22898  1_655   S
    Zr20   O104      2.60372      .   S
    C101   O105      1.13848      .   S
    Zr15   O105      2.49151      .   S
    C101   O106      0.82019      .   S
    Zr13   O106      2.17009      .   S
    C107   O108      0.83263      .   S
    N44    O108      2.22399      .   S
    C107   O109      1.22250      .   S
    Zr0    O109      2.58187      .   S
    C107   O110      0.92255      .   S
    Zr25   O110      2.19920      .   S
    C107   O111      1.16576      .   S
    Zr23   O111      2.52704      .   S
    C112   O113      1.22893      .   S
    Zr4    O113      2.60357      .   S
    C112   O114      0.83759      .   S
    Zr28   O114      2.15102      .   S
    C112   O115      0.83473      .   S
    N41    O115      2.23291      .   S
    C112   O116      1.13849      .   S
    Zr30   O116      2.49152      .   S
    C112   O117      0.82078      .   S
    Zr28   O117      2.17024      .   S
    C118   O119      0.82608      .   S
    N36    O119      2.23722      .   S
    C118   O120      1.17934      .   S
    Zr10   O120      2.57864      .   S
    C118   O121      1.06514      .   S
    Zr18   O121      2.40112      .   S
    C118   O122      1.15951      .   S
    Zr16   O122      2.48669      .   S
    C123   O124      0.83473      .   S
    N45    O124      2.23295      .   S
    C123   O125      1.23048      .   S
    Zr13   O125      2.60776      .   S
    C123   O126      0.83758      .   S
    Zr21   O126      2.15093      .   S
    C123   O127      1.13849      .   S
    Zr23   O127      2.49150      .   S
    C123   O128      0.82074      .   S
    Zr21   O128      2.17019      .   S
    C129   O130      1.16172      .   S
    Zr13   O130      2.49423      .   S
    C129   O131      1.06513      .   S
    Zr15   O131      2.40111      .   S
    C129   O132      1.17938  1_655   S
    Zr22   O132      2.57871      .   S
    C129   O133      0.82609      .   S
    N75    O133      2.23745  1_455   S
    C134   O135      0.82629      .   S
    N66    O135      2.23697      .   S
    C134   O136      1.06386      .   S
    Zr6    O136      2.40001      .   S
    C134   O137      1.17852      .   S
    Zr31   O137      2.57802      .   S
    C134   O138      1.16014      .   S
    Zr4    O138      2.48712      .   S
    C139   O140      0.83491      .   S
    N71    O140      2.23274      .   S
    C139   O141      1.13849      .   S
    Zr19   O141      2.49153      .   S
    C139   O142      0.82046      .   S
    Zr17   O142      2.16906      .   S
    C139   O143      1.22896      .   S
    Zr9    O143      2.60360      .   S
    C139   O144      0.83719      .   S
    Zr17   O144      2.14994      .   S
    C145   O146      1.15953      .   S
    Zr1    O146      2.48670      .   S
    C145   O147      1.06510      .   S
    Zr3    O147      2.40109      .   S
    C145   O148      1.17937  1_655   S
    Zr26   O148      2.57872      .   S
    C145   O149      0.82608      .   S
    N53    O149      2.23739  1_455   S
    C150   O151      0.83261      .   S
    N39    O151      2.22403  1_554   S
    C150   O152      1.16581  1_556   S
    Zr7    O152      2.52690      .   S
    C150   O153      1.22278      .   S
    Zr17   O153      2.58226      .   S
    C150   O154      0.92263      .   S
    Zr9    O154      2.19885      .   S
    C155   O156      1.13849      .   S
    Zr2    O156      2.49150      .   S
    C155   O157      0.82074      .   S
    Zr0    O157      2.17019      .   S
    C155   O158      0.83473      .   S
    N48    O158      2.23295      .   S
    C155   O159      0.83758      .   S
    Zr0    O159      2.15093      .   S
    C155   O160      1.22896      .   S
    Zr25   O160      2.60360      .   S
    C161   O162      1.16557      .   S
    Zr22   O162      2.52685      .   S
    C161   O163      1.22244      .   S
    Zr1    O163      2.58222  1_655   S
    C161   O164      0.92241      .   S
    Zr24   O164      2.19964      .   S
    C161   O165      0.83249      .   S
    N75    O165      2.22408      .   S
    C166   O167      1.08643      .   S
    Zr11   O167      2.43874      .   S
    C166   O168      1.17839      .   S
    Zr19   O168      2.58232      .   S
    C166   O169      0.82816      .   S
    N71    O169      2.24757      .   S
    C166   O170      1.23734      .   S
    Zr5    O170      2.60907      .   S
    C171   O172      0.82812      .   S
    N54    O172      2.24741      .   S
    C171   O173      1.08649      .   S
    Zr2    O173      2.43881      .   S
    C171   O174      1.17840      .   S
    Zr26   O174      2.58233      .   S
    C171   O175      1.23701      .   S
    Zr8    O175      2.60803      .   S
    C176   O177      0.82818      .   S
    N38    O177      2.24770  1_655   S
    C176   O178      1.17841      .   S
    Zr7    O178      2.58246  1_655   S
    C176   O179      1.08637      .   S
    Zr30   O179      2.43871      .   S
    C176   O180      1.23687  1_554   S
    Zr16   O180      2.60782      .   S
    C181   O182      1.16564  1_545   S
    Zr14   O182      2.52672      .   S
    C181   O183      0.83332      .   S
    N33    O183      2.22278  1_565   S
    C181   O184      1.22248      .   S
    Zr28   O184      2.58186      .   S
    C181   O185      0.92255      .   S
    Zr4    O185      2.19923      .   S
    C186   O187      1.17931      .   S
    Zr11   O187      2.57856      .   S
    C186   O188      1.06510      .   S
    Zr19   O188      2.40110      .   S
    C186   O189      0.82608      .   S
    N50    O189      2.23727      .   S
    C186   O190      1.15931      .   S
    Zr17   O190      2.48624      .   S
    C191   O192      1.08643      .   S
    Zr10   O192      2.43877      .   S
    C191   O193      1.17839      .   S
    Zr18   O193      2.58231      .   S
    C191   O194      0.82818      .   S
    N56    O194      2.24764      .   S
    C191   O195      1.23703      .   S
    Zr4    O195      2.60808      .   S
    C196   O197      0.83254      .   S
    N63    O197      2.22388  1_554   S
    C196   O198      1.22249      .   S
    Zr16   O198      2.58184      .   S
    C196   O199      0.92255      .   S
    Zr8    O199      2.19921      .   S
    C196   O200      1.16567  1_556   S
    Zr6    O200      2.52674      .   S
    C201   O202      0.83255      .   S
    N68    O202      2.22419      .   S
    C201   O203      1.16575      .   S
    Zr27   O203      2.52703      .   S
    C201   O204      1.22248      .   S
    Zr8    O204      2.58186      .   S
    C201   O205      0.92244      .   S
    Zr17   O205      2.19892      .   S
    C206   O207      1.13847      .   S
    Zr22   O207      2.49155      .   S
    C206   O208      0.82076      .   S
    Zr20   O208      2.17022      .   S
    C206   O209      1.22893      .   S
    Zr12   O209      2.60358      .   S
    C206   O210      0.83757      .   S
    Zr20   O210      2.15100      .   S
    C206   O211      0.83451      .   S
    N74    O211      2.23320      .   S
    C212   O213      0.83488      .   S
    N38    O213      2.23273      .   S
    C212   O214      1.13846      .   S
    Zr7    O214      2.49151      .   S
    C212   O215      0.82054      .   S
    Zr5    O215      2.16927      .   S
    C212   O216      0.83721      .   S
    Zr5    O216      2.15020      .   S
    C212   O217      1.22897  1_655   S
    Zr28   O217      2.60378      .   S
    C218   O219      1.13846      .   S
    Zr10   O219      2.49149      .   S
    C218   O220      0.82075      .   S
    Zr8    O220      2.17022      .   S
    C218   O221      0.83472      .   S
    N35    O221      2.23291      .   S
    C218   O222      0.83759      .   S
    Zr8    O222      2.15097      .   S
    C218   O223      1.22886      .   S
    Zr17   O223      2.60346      .   S
    C224   O225      1.22248      .   S
    Zr29   O225      2.58186      .   S
    C224   O226      0.92246      .   S
    Zr5    O226      2.19895      .   S
    C224   O227      0.83330      .   S
    N77    O227      2.22280  1_565   S
    C224   O228      1.16565  1_545   S
    Zr15   O228      2.52672      .   S
    C229   O230      0.83249      .   S
    N36    O230      2.22399  1_545   S
    C229   O231      1.22250      .   S
    Zr24   O231      2.58190      .   S
    C229   O232      0.92254      .   S
    Zr0    O232      2.19925      .   S
    C229   O233      1.16569  1_565   S
    Zr10   O233      2.52683      .   S
    C234   O235      0.83247      .   S
    N66    O235      2.22431      .   S
    C234   O236      1.16575      .   S
    Zr31   O236      2.52703      .   S
    C234   O237      1.22248      .   S
    Zr12   O237      2.58185      .   S
    C234   O238      0.92254      .   S
    Zr21   O238      2.19923      .   S
    C239   O240      1.22253      .   S
    Zr9    O240      2.58204  1_655   S
    C239   O241      0.92255      .   S
    Zr16   O241      2.19929      .   S
    C239   O242      1.16575      .   S
    Zr26   O242      2.52699      .   S
    C239   O243      0.83257      .   S
    N53    O243      2.22422      .   S
    C244   O245      1.08643      .   S
    Zr15   O245      2.43876      .   S
    C244   O246      1.17839      .   S
    Zr23   O246      2.58229      .   S
    C244   O247      1.23698      .   S
    Zr1    O247      2.60795      .   S
    C244   O248      0.82816      .   S
    N45    O248      2.24760      .   S
    C249   O250      1.17840      .   S
    Zr3    O250      2.58245  1_655   S
    C249   O251      1.08637      .   S
    Zr26   O251      2.43869      .   S
    C249   O252      1.23689  1_556   S
    Zr20   O252      2.60795      .   S
    C249   O253      0.82817      .   S
    N59    O253      2.24771  1_655   S
    C254   O255      0.83253      .   S
    N72    O255      2.22416      .   S
    C254   O256      1.22251      .   S
    Zr4    O256      2.58188      .   S
    C254   O257      0.92255      .   S
    Zr29   O257      2.19918      .   S
    C254   O258      1.16577      .   S
    Zr19   O258      2.52704      .   S
    C259   O260      1.13847      .   S
    Zr31   O260      2.49148      .   S
    C259   O261      0.82077      .   S
    Zr29   O261      2.17025      .   S
    C259   O262      1.22887      .   S
    Zr5    O262      2.60347      .   S
    C259   O263      0.83759      .   S
    Zr29   O263      2.15101      .   S
    C259   O264      0.83473      .   S
    N65    O264      2.23290      .   S
    C265   O266      0.82817      .   S
    N62    O266      2.24757      .   S
    C265   O267      1.17836      .   S
    Zr6    O267      2.58229      .   S
    C265   O268      1.08637      .   S
    Zr31   O268      2.43871      .   S
    C265   O269      1.23728  1_554   S
    Zr17   O269      2.60910      .   S
    C270   O271      1.22342      .   S
    Zr21   O271      2.58264      .   S
    C270   O272      0.92131      .   S
    Zr13   O272      2.19346      .   S
    C270   O273      0.83313      .   S
    N60    O273      2.22065  1_556   S
    C270   O274      1.16426  1_554   S
    Zr3    O274      2.52523      .   S
    C275   O276      1.23685  1_545   S
    Zr25   O276      2.60784      .   S
    C275   O277      0.82820      .   S
    N35    O277      2.24777      .   S
    C275   O278      1.17830      .   S
    Zr10   O278      2.58221      .   S
    C275   O279      1.08628      .   S
    Zr19   O279      2.43863      .   S
    C280   O281      1.13847      .   S
    Zr27   O281      2.49148      .   S
    C280   O282      0.82076      .   S
    Zr25   O282      2.17023      .   S
    C280   O283      0.83473      .   S
    N69    O283      2.23287      .   S
    C280   O284      1.22895      .   S
    Zr1    O284      2.60360      .   S
    C280   O285      0.83759      .   S
    Zr25   O285      2.15099      .   S
    C286   O287      1.13849      .   S
    Zr6    O287      2.49152      .   S
    C286   O288      0.82073      .   S
    Zr4    O288      2.17018      .   S
    C286   O289      0.83479      .   S
    N62    O289      2.23287      .   S
    C286   O290      0.83758      .   S
    Zr4    O290      2.15092      .   S
    C286   O291      1.22896      .   S
    Zr29   O291      2.60360      .   S
    C292   O293      0.82819      .   S
    N65    O293      2.24781      .   S
    C292   O294      1.08634      .   S
    Zr7    O294      2.43866      .   S
    C292   O295      1.17837      .   S
    Zr31   O295      2.58231      .   S
    C292   O296      1.23710      .   S
    Zr13   O296      2.60839      .   S
    C297   O298      1.15952      .   S
    Zr20   O298      2.48670      .   S
    C297   O299      0.82611      .   S
    N33    O299      2.23724      .   S
    C297   O300      1.17932      .   S
    Zr14   O300      2.57860      .   S
    C297   O301      1.06511      .   S
    Zr22   O301      2.40112      .   S
    C302   O303      0.83249      .   S
    N42    O303      2.22432      .   S
    C302   O304      1.22265      .   S
    Zr13   O304      2.58214  1_655   S
    C302   O305      0.92254      .   S
    Zr20   O305      2.19921      .   S
    C302   O306      1.16575      .   S
    Zr30   O306      2.52703      .   S
    C307   O308      1.13858      .   S
    Zr14   O308      2.49161      .   S
    C307   O309      0.82081      .   S
    Zr12   O309      2.17026      .   S
    C307   O310      0.83473      .   S
    N32    O310      2.23295      .   S
    C307   O311      0.83758      .   S
    Zr12   O311      2.15106      .   S
    C307   O312      1.22891      .   S
    Zr21   O312      2.60356      .   S
    C313   O314      1.17842      .   S
    Zr15   O314      2.58248  1_655   S
    C313   O315      1.08634      .   S
    Zr22   O315      2.43864      .   S
    C313   O316      1.23691  1_565   S
    Zr28   O316      2.60791      .   S
    C313   O317      0.82817      .   S
    N78    O317      2.24777  1_655   S
    C318   O319      0.82606      .   S
    N68    O319      2.23726      .   S
    C318   O320      1.15949      .   S
    Zr0    O320      2.48662      .   S
    C318   O321      1.06510      .   S
    Zr2    O321      2.40108      .   S
    C318   O322      1.17932      .   S
    Zr27   O322      2.57860      .   S
    C323   O324      0.82813      .   S
    N32    O324      2.24744      .   S
    C323   O325      1.23692  1_565   S
    Zr29   O325      2.60792      .   S
    C323   O326      1.17839      .   S
    Zr14   O326      2.58230      .   S
    C323   O327      1.08640      .   S
    Zr23   O327      2.43874      .   S
    C328   O329      1.13849      .   S
    Zr26   O329      2.49158      .   S
    C328   O330      0.82076      .   S
    Zr24   O330      2.17024      .   S
    C328   O331      1.22895      .   S
    Zr0    O331      2.60363      .   S
    C328   O332      0.83758      .   S
    Zr24   O332      2.15101      .   S
    C328   O333      0.83473      .   S
    N54    O333      2.23288      .   S
    C334   O335      0.83460      .   S
    N56    O335      2.23260      .   S
    C334   O336      1.13855      .   S
    Zr18   O336      2.49117      .   S
    C334   O337      0.82068      .   S
    Zr16   O337      2.17095      .   S
    C334   O338      1.22911      .   S
    Zr8    O338      2.60376      .   S
    C334   O339      0.83789      .   S
    Zr16   O339      2.15128      .   S
    C340   O341      0.82608      .   S
    N77    O341      2.23722      .   S
    C340   O342      1.15951      .   S
    Zr21   O342      2.48668      .   S
    C340   O343      1.17931      .   S
    Zr15   O343      2.57859      .   S
    C340   O344      1.06511      .   S
    Zr23   O344      2.40109      .   S
    C345   O346      1.13732      .   S
    Zr11   O346      2.49029      .   S
    C345   O347      0.82045      .   S
    Zr9    O347      2.17022      .   S
    C345   O348      0.83476      .   S
    N51    O348      2.23256      .   S
    C345   O349      0.83752      .   S
    Zr9    O349      2.15052      .   S
    C345   O350      1.22883  1_655   S
    Zr16   O350      2.60421      .   S
    C351   O352      1.15952      .   S
    Zr8    O352      2.48667      .   S
    C351   O353      1.06514      .   S
    Zr10   O353      2.40110      .   S
    C351   O354      1.17934      .   S
    Zr19   O354      2.57860      .   S
    C351   O355      0.82608      .   S
    N72    O355      2.23734      .   S
    C356   O357      0.82632      .   S
    N42    O357      2.23708  1_455   S
    C356   O358      1.15997      .   S
    Zr5    O358      2.48677      .   S
    C356   O359      1.06386      .   S
    Zr7    O359      2.40001      .   S
    C356   O360      1.17856  1_655   S
    Zr30   O360      2.57818      .   S
    C361   O362      1.22251      .   S
    Zr20   O362      2.58190      .   S
    C361   O363      0.92260      .   S
    Zr12   O363      2.19931      .   S
    C361   O364      1.16569  1_554   S
    Zr2    O364      2.52677      .   S
    C361   O365      0.83331      .   S
    N47    O365      2.22265  1_556   S
    C366   O367      1.06514      .   S
    Zr14   O367      2.40111      .   S
    C366   O368      1.17934      .   S
    Zr23   O368      2.57861      .   S
    C366   O369      0.82607      .   S
    N44    O369      2.23729      .   S
    C366   O370      1.15952      .   S
    Zr12   O370      2.48660      .   S
    C371   O372      1.08634      .   S
    Zr6    O372      2.43866      .   S
    C371   O373      1.17837      .   S
    Zr30   O373      2.58232      .   S
    C371   O374      0.82820      .   S
    N41    O374      2.24782      .   S
    C371   O375      1.23700      .   S
    Zr12   O375      2.60799      .   S
    C376   O377      1.17834      .   S
    Zr2    O377      2.58226      .   S
    C376   O378      1.08637      .   S
    Zr27   O378      2.43870      .   S
    C376   O379      1.23690  1_556   S
    Zr21   O379      2.60796      .   S
    C376   O380      0.82817      .   S
    N48    O380      2.24755      .   S
    C381   O382      1.17939      .   S
    Zr2    O382      2.57866      .   S
    C381   O383      1.06514      .   S
    Zr26   O383      2.40112      .   S
    C381   O384      0.82591      .   S
    N47    O384      2.23790      .   S
    C381   O385      1.15935      .   S
    Zr24   O385      2.48649      .   S
    C386   O387      1.17935      .   S
    Zr6    O387      2.57862      .   S
    C386   O388      1.06514      .   S
    Zr30   O388      2.40110      .   S
    C386   O389      1.15949      .   S
    Zr28   O389      2.48656      .   S
    C386   O390      0.82608      .   S
    N63    O390      2.23734      .   S
    C391   O392      1.23700      .   S
    Zr9    O392      2.60799      .   S
    C391   O393      0.82816      .   S
    N69    O393      2.24764      .   S
    C391   O394      1.08640      .   S
    Zr3    O394      2.43873      .   S
    C391   O395      1.17838      .   S
    Zr27   O395      2.58230      .   S
    C396   O397      1.23703      .   S
    Zr0    O397      2.60810      .   S
    C396   O398      0.82818      .   S
    N74    O398      2.24756      .   S
    C396   O399      1.08643      .   S
    Zr14   O399      2.43877      .   S
    C396   O400      1.17840      .   S
    Zr22   O400      2.58237      .   S
    C401   O402      0.83266      .   S
    N57    O402      2.22322      .   S
    C401   O403      1.16588      .   S
    Zr18   O403      2.52717      .   S
    C401   O404      1.22280      .   S
    Zr5    O404      2.58240  1_655   S
    C401   O405      0.92266      .   S
    Zr28   O405      2.19904      .   S
    C406   O407      1.17933      .   S
    Zr3    O407      2.57858      .   S
    C406   O408      1.06515      .   S
    Zr27   O408      2.40114      .   S
    C406   O409      0.82586      .   S
    N60    O409      2.23755      .   S
    C406   O410      1.15955      .   S
    Zr25   O410      2.48672      .   S
    C411   O412      0.82821      .   S
    N51    O412      2.24792  1_655   S
    C411   O413      1.17835      .   S
    Zr11   O413      2.58244  1_655   S
    C411   O414      1.08628      .   S
    Zr18   O414      2.43861      .   S
    C411   O415      1.23685  1_545   S
    Zr24   O415      2.60786      .   S
