# CIF file generated by openbabel 2.4.90, see http://openbabel.sf.net
data_I
_chemical_name_common ''
_cell_length_a 20.472
_cell_length_b 12.631
_cell_length_c 15.386
_cell_angle_alpha 90.011
_cell_angle_beta 90.002
_cell_angle_gamma 90.012
_space_group_name_H-M_alt 'P 1'
_space_group_name_Hall 'P 1'
loop_
    _symmetry_equiv_pos_as_xyz
    x,y,z
loop_
    _atom_site_label
    _atom_site_type_symbol
    _atom_site_fract_x
    _atom_site_fract_y
    _atom_site_fract_z
    _atom_site_occupancy
    H0      H    0.18813   0.75819   0.06706   1.000
    H1      H    0.68814   0.75819   0.06706   1.000
    H2      H    0.32714   0.78239   0.86736   1.000
    H3      H    0.82715   0.78239   0.86736   1.000
    H4      H    0.26009   0.49350   0.89000   1.000
    H5      H    0.76009   0.49351   0.89007   1.000
    H6      H    0.21862   0.47307   0.73064   1.000
    H7      H    0.71862   0.47307   0.73064   1.000
    H8      H    0.36582   0.65263   0.61031   1.000
    H9      H    0.86582   0.65263   0.61031   1.000
    H10     H    0.06188   0.24188   0.56706   1.000
    H11     H    0.56188   0.24188   0.56705   1.000
    H12     H    0.42287   0.21759   0.36736   1.000
    H13     H    0.92288   0.21759   0.36736   1.000
    H14     H    0.48991   0.50649   0.39012   1.000
    H15     H    0.98991   0.50650   0.39013   1.000
    H16     H    0.03132   0.52699   0.23071   1.000
    H17     H    0.53131   0.52698   0.23070   1.000
    H18     H    0.38413   0.34734   0.11035   1.000
    H19     H    0.88413   0.34734   0.11030   1.000
    H20     H    0.31186   0.25822   0.43289   1.000
    H21     H    0.81187   0.25822   0.43290   1.000
    H22     H    0.17284   0.28240   0.63256   1.000
    H23     H    0.67284   0.28240   0.63256   1.000
    H24     H    0.23990   0.99356   0.60983   1.000
    H25     H    0.73990   0.99355   0.60982   1.000
    H26     H    0.28137   0.97309   0.76923   1.000
    H27     H    0.78137   0.97309   0.76923   1.000
    H28     H    0.13418   0.15254   0.88966   1.000
    H29     H    0.63419   0.15254   0.88966   1.000
    H30     H    0.43812   0.74171   0.93280   1.000
    H31     H    0.93812   0.74171   0.93287   1.000
    H32     H    0.07712   0.71761   0.13261   1.000
    H33     H    0.57712   0.71761   0.13260   1.000
    H34     H    0.01010   0.00646   0.10980   1.000
    H35     H    0.51010   0.00646   0.10986   1.000
    H36     H    0.46871   0.02699   0.26928   1.000
    H37     H    0.96870   0.02700   0.26929   1.000
    H38     H    0.11583   0.84735   0.38960   1.000
    H39     H    0.61584   0.84735   0.38961   1.000
    H40     H    0.31187   0.24185   0.93289   1.000
    H41     H    0.81187   0.24185   0.93289   1.000
    H42     H    0.17286   0.21765   0.13259   1.000
    H43     H    0.67286   0.21765   0.13259   1.000
    H44     H    0.23991   0.50653   0.10988   1.000
    H45     H    0.73991   0.50653   0.10988   1.000
    H46     H    0.28138   0.52697   0.26931   1.000
    H47     H    0.78138   0.52698   0.26931   1.000
    H48     H    0.13418   0.34741   0.38964   1.000
    H49     H    0.63419   0.34740   0.38964   1.000
    H50     H    0.43812   0.75816   0.43289   1.000
    H51     H    0.93811   0.75816   0.43290   1.000
    H52     H    0.07713   0.78245   0.63260   1.000
    H53     H    0.57713   0.78245   0.63259   1.000
    H54     H    0.01009   0.49354   0.60983   1.000
    H55     H    0.51009   0.49354   0.60983   1.000
    H56     H    0.46869   0.47305   0.76924   1.000
    H57     H    0.96868   0.47305   0.76925   1.000
    H58     H    0.11588   0.65270   0.88960   1.000
    H59     H    0.61587   0.65270   0.88960   1.000
    H60     H    0.18814   0.74181   0.56706   1.000
    H61     H    0.68814   0.74181   0.56706   1.000
    H62     H    0.32716   0.71764   0.36739   1.000
    H63     H    0.82716   0.71764   0.36739   1.000
    H64     H    0.26010   0.00648   0.39012   1.000
    H65     H    0.76010   0.00648   0.39010   1.000
    H66     H    0.21863   0.02695   0.23072   1.000
    H67     H    0.71863   0.02696   0.23072   1.000
    H68     H    0.36582   0.84750   0.11029   1.000
    H69     H    0.86582   0.84751   0.11029   1.000
    H70     H    0.06188   0.25832   0.06709   1.000
    H71     H    0.56189   0.25832   0.06707   1.000
    H72     H    0.42288   0.28242   0.86735   1.000
    H73     H    0.92288   0.28243   0.86730   1.000
    H74     H    0.48989   0.99357   0.89009   1.000
    H75     H    0.98990   0.99358   0.89010   1.000
    H76     H    0.03130   0.97303   0.73067   1.000
    H77     H    0.53129   0.97304   0.73067   1.000
    H78     H    0.38417   0.15269   0.61034   1.000
    H79     H    0.88418   0.15271   0.61035   1.000
    C80     C    0.22134   0.73729   0.01502   1.000
    C81     C    0.72134   0.73729   0.01502   1.000
    C82     C    0.29196   0.75179   0.91362   1.000
    C83     C    0.79196   0.75179   0.91362   1.000
    C84     C    0.29570   0.55560   0.87475   1.000
    C85     C    0.79570   0.55560   0.87475   1.000
    C86     C    0.26071   0.52356   0.71943   1.000
    C87     C    0.76072   0.52356   0.71943   1.000
    C88     C    0.33552   0.61677   0.66009   1.000
    C89     C    0.83552   0.61678   0.66009   1.000
    N90     N    0.52179   0.36135   0.48647   1.000
    N91     N    0.49086   0.19037   0.47192   1.000
    N92     N    0.99086   0.19037   0.47193   1.000
    N93     N    0.45394   0.42703   0.28151   1.000
    C94     C    0.02868   0.26275   0.51502   1.000
    C95     C    0.52868   0.26275   0.51501   1.000
    C96     C    0.45806   0.24820   0.41360   1.000
    C97     C    0.95806   0.24820   0.41363   1.000
    C98     C    0.45430   0.44439   0.37480   1.000
    C99     C    0.95430   0.44439   0.37481   1.000
    C100    C    0.48923   0.47645   0.21948   1.000
    C101    C    0.98923   0.47646   0.21949   1.000
    C102    C    0.41444   0.38321   0.16013   1.000
    C103    C    0.91444   0.38322   0.16013   1.000
    C104    C    0.27866   0.23731   0.48494   1.000
    C105    C    0.77867   0.23732   0.48494   1.000
    C106    C    0.20803   0.25181   0.58631   1.000
    C107    C    0.70803   0.25181   0.58631   1.000
    C108    C    0.20431   0.05564   0.62510   1.000
    C109    C    0.70431   0.05564   0.62516   1.000
    C110    C    0.23928   0.02356   0.78047   1.000
    C111    C    0.73928   0.02356   0.78047   1.000
    C112    C    0.16449   0.11672   0.83986   1.000
    C113    C    0.66450   0.11672   0.83986   1.000
    C114    C    0.47132   0.76264   0.98492   1.000
    C115    C    0.97132   0.76264   0.98492   1.000
    C116    C    0.04194   0.74819   0.08635   1.000
    C117    C    0.54194   0.74819   0.08634   1.000
    N118    N    0.27349   0.85043   0.42118   1.000
    N119    N    0.77349   0.85043   0.42118   1.000
    N120    N    0.22820   0.86131   0.48645   1.000
    N121    N    0.72820   0.86131   0.48645   1.000
    N122    N    0.25918   0.69038   0.47195   1.000
    C123    C    0.04571   0.94439   0.12518   1.000
    C124    C    0.54570   0.94438   0.12517   1.000
    C125    C    0.01077   0.97647   0.28050   1.000
    C126    C    0.51077   0.97647   0.28050   1.000
    C127    C    0.08554   0.88323   0.33984   1.000
    C128    C    0.58554   0.88323   0.33984   1.000
    C129    C    0.27866   0.26275   0.98493   1.000
    C130    C    0.77867   0.26275   0.98493   1.000
    C131    C    0.20804   0.24824   0.08633   1.000
    C132    C    0.70804   0.24825   0.08633   1.000
    C133    C    0.20430   0.44443   0.12520   1.000
    C134    C    0.70430   0.44443   0.12520   1.000
    C135    C    0.23928   0.47648   0.28052   1.000
    C136    C    0.73929   0.47648   0.28052   1.000
    C137    C    0.16448   0.38326   0.33986   1.000
    C138    C    0.66449   0.38326   0.33986   1.000
    C139    C    0.47133   0.73728   0.48494   1.000
    C140    C    0.97132   0.73728   0.48494   1.000
    C141    C    0.04194   0.75184   0.58633   1.000
    C142    C    0.54194   0.75183   0.58632   1.000
    C143    C    0.04570   0.55564   0.62515   1.000
    C144    C    0.54570   0.55565   0.62515   1.000
    C145    C    0.01077   0.52358   0.78047   1.000
    C146    C    0.51077   0.52358   0.78047   1.000
    C147    C    0.08556   0.61682   0.83983   1.000
    C148    C    0.58556   0.61682   0.83982   1.000
    C149    C    0.22134   0.76272   0.51501   1.000
    C150    C    0.72134   0.76272   0.51501   1.000
    C151    C    0.29196   0.74822   0.41364   1.000
    C152    C    0.79197   0.74822   0.41364   1.000
    C153    C    0.29569   0.94439   0.37470   1.000
    C154    C    0.79569   0.94440   0.37479   1.000
    C155    C    0.26071   0.97647   0.21948   1.000
    C156    C    0.76072   0.97648   0.21948   1.000
    C157    C    0.33551   0.88332   0.16009   1.000
    C158    C    0.83551   0.88333   0.16009   1.000
    C159    C    0.02868   0.23739   0.01504   1.000
    C160    C    0.52868   0.23739   0.01503   1.000
    C161    C    0.45806   0.25185   0.91361   1.000
    C162    C    0.95806   0.25185   0.91361   1.000
    C163    C    0.45429   0.05565   0.87478   1.000
    C164    C    0.95429   0.05565   0.87478   1.000
    C165    C    0.48923   0.02357   0.71945   1.000
    C166    C    0.98923   0.02357   0.71946   1.000
    C167    C    0.41447   0.11681   0.66011   1.000
    C168    C    0.91447   0.11683   0.66012   1.000
    N169    N    0.27350   0.64957   0.92117   1.000
    N170    N    0.77351   0.64957   0.92117   1.000
    N171    N    0.22821   0.63868   0.98643   1.000
    N172    N    0.72822   0.63868   0.98644   1.000
    N173    N    0.25916   0.80964   0.97190   1.000
    N174    N    0.75916   0.80964   0.97192   1.000
    N175    N    0.29604   0.57295   0.78146   1.000
    N176    N    0.79604   0.57296   0.78147   1.000
    N177    N    0.34486   0.63259   0.74437   1.000
    N178    N    0.84486   0.63260   0.74437   1.000
    N179    N    0.28451   0.55009   0.64172   1.000
    N180    N    0.78451   0.55010   0.64172   1.000
    N181    N    0.47650   0.35043   0.42119   1.000
    N182    N    0.97650   0.35043   0.42120   1.000
    N183    N    0.02179   0.36135   0.48648   1.000
    N184    N    0.95394   0.42703   0.28152   1.000
    N185    N    0.40513   0.36737   0.24440   1.000
    N186    N    0.90513   0.36738   0.24441   1.000
    N187    N    0.46543   0.44992   0.14176   1.000
    N188    N    0.96542   0.44993   0.14177   1.000
    N189    N    0.22651   0.14960   0.57877   1.000
    N190    N    0.72651   0.14960   0.57877   1.000
    N191    N    0.27179   0.13872   0.51350   1.000
    N192    N    0.77180   0.13872   0.51350   1.000
    N193    N    0.24082   0.30966   0.52800   1.000
    N194    N    0.74082   0.30966   0.52800   1.000
    N195    N    0.20397   0.07299   0.71846   1.000
    N196    N    0.70398   0.07298   0.71846   1.000
    N197    N    0.15516   0.13258   0.75559   1.000
    N198    N    0.65517   0.13259   0.75559   1.000
    N199    N    0.21549   0.05005   0.85800   1.000
    N200    N    0.71549   0.05005   0.85819   1.000
    N201    N    0.02350   0.85040   0.07878   1.000
    N202    N    0.52350   0.85040   0.07877   1.000
    N203    N    0.47822   0.86126   0.01349   1.000
    N204    N    0.97821   0.86126   0.01349   1.000
    N205    N    0.00914   0.69032   0.02804   1.000
    N206    N    0.50914   0.69032   0.02804   1.000
    N207    N    0.04606   0.92704   0.21847   1.000
    N208    N    0.54606   0.92704   0.21846   1.000
    N209    N    0.09486   0.86739   0.25556   1.000
    N210    N    0.59486   0.86739   0.25556   1.000
    N211    N    0.03456   0.94994   0.35820   1.000
    N212    N    0.53457   0.94994   0.35821   1.000
    N213    N    0.22650   0.35047   0.07878   1.000
    N214    N    0.72650   0.35047   0.07878   1.000
    N215    N    0.27178   0.36136   0.01351   1.000
    N216    N    0.77179   0.36136   0.01351   1.000
    N217    N    0.24084   0.19040   0.02803   1.000
    N218    N    0.74084   0.19040   0.02803   1.000
    N219    N    0.20396   0.42708   0.21849   1.000
    N220    N    0.70396   0.42708   0.21849   1.000
    N221    N    0.15515   0.36744   0.25558   1.000
    N222    N    0.65515   0.36744   0.25558   1.000
    N223    N    0.21549   0.44994   0.35823   1.000
    N224    N    0.71549   0.44994   0.35823   1.000
    N225    N    0.02350   0.64960   0.57876   1.000
    N226    N    0.52350   0.64960   0.57875   1.000
    N227    N    0.47822   0.63869   0.51347   1.000
    N228    N    0.97821   0.63869   0.51348   1.000
    N229    N    0.00914   0.80966   0.52803   1.000
    N230    N    0.50914   0.80966   0.52800   1.000
    N231    N    0.04606   0.57301   0.71844   1.000
    N232    N    0.54606   0.57301   0.71844   1.000
    N233    N    0.09488   0.63266   0.75555   1.000
    N234    N    0.59487   0.63266   0.75555   1.000
    N235    N    0.03458   0.55011   0.85819   1.000
    N236    N    0.53457   0.55011   0.85810   1.000
    N237    N    0.75918   0.69038   0.47195   1.000
    N238    N    0.29602   0.92705   0.28149   1.000
    N239    N    0.79603   0.92705   0.28149   1.000
    N240    N    0.34484   0.86746   0.24436   1.000
    N241    N    0.84484   0.86746   0.24436   1.000
    N242    N    0.28451   0.94999   0.14175   1.000
    N243    N    0.78451   0.95000   0.14170   1.000
    N244    N    0.47650   0.14963   0.92118   1.000
    N245    N    0.97649   0.14963   0.92119   1.000
    N246    N    0.02179   0.13877   0.98647   1.000
    N247    N    0.52179   0.13877   0.98640   1.000
    N248    N    0.49086   0.30971   0.97191   1.000
    N249    N    0.99086   0.30972   0.97192   1.000
    N250    N    0.45394   0.07299   0.78149   1.000
    N251    N    0.95394   0.07300   0.78149   1.000
    N252    N    0.40514   0.13265   0.74439   1.000
    N253    N    0.90515   0.13266   0.74440   1.000
    N254    N    0.46544   0.05010   0.64174   1.000
    N255    N    0.96544   0.05011   0.64170   1.000
loop_
    _geom_bond_atom_site_label_1
    _geom_bond_atom_site_label_2
    _geom_bond_distance
    _geom_bond_site_symmetry_2
    _ccdc_geom_bond_type
    N204   N201      1.37393  1_655   S
    N204   C115      1.32837  1_554   S
    N203   N202      1.37372      .   S
    N203   C114      1.32836  1_554   S
    N215   N213      1.37371      .   S
    N215   C129      1.32833  1_554   S
    N216   N214      1.37373      .   S
    N216   C130      1.32833  1_554   S
    C80    H0        1.08301      .   S
    C80    N173      1.36923  1_554   S
    C80    N171      1.32838  1_554   S
    C81    H1        1.08301      .   S
    C81    N174      1.36909  1_554   S
    C81    N172      1.32832  1_554   S
    C160   H71       1.08300      .   S
    C160   N248      1.36921  1_554   S
    C160   N247      1.32867  1_554   S
    C159   H70       1.08302      .   S
    C159   N249      1.36927  1_454   S
    C159   N246      1.32837  1_554   S
    N217   C131      1.33766      .   S
    N217   C129      1.36909  1_554   S
    N218   C132      1.33767      .   S
    N218   C130      1.36910  1_554   S
    N206   C117      1.33766      .   S
    N206   C114      1.36921  1_554   S
    N205   C116      1.33774      .   S
    N205   C115      1.36929  1_454   S
    N202   C117      1.35026      .   S
    N202   C124      1.45772      .   S
    N214   C132      1.35030      .   S
    N214   C134      1.45776      .   S
    N213   C131      1.35029      .   S
    N213   C133      1.45778      .   S
    N201   C116      1.35026      .   S
    N201   C123      1.45772      .   S
    C132   H43       1.08388      .   S
    C131   H42       1.08385      .   S
    C117   H33       1.08380      .   S
    C116   H32       1.08380      .   S
    H34    C123      1.09650  1_545   S
    H35    C124      1.09627  1_545   S
    H44    C133      1.09639      .   S
    H45    C134      1.09640      .   S
    H68    C157      1.08478      .   S
    H69    C158      1.08479      .   S
    H19    C103      1.08534      .   S
    H18    C102      1.08479      .   S
    C124   N208      1.45204      .   S
    C123   N207      1.45204      .   S
    C133   N219      1.45205      .   S
    C134   N220      1.45205      .   S
    N243   C158      1.37095      .   S
    N243   C156      1.33467      .   S
    N242   C157      1.37080      .   S
    N242   C155      1.33398      .   S
    N187   C102      1.37081      .   S
    N187   C100      1.33398      .   S
    N188   C103      1.37077      .   S
    N188   C101      1.33398      .   S
    C157   N240      1.32583      .   S
    C158   N241      1.32583      .   S
    C103   N186      1.32590      .   S
    C102   N185      1.32575      .   S
    N208   N210      1.37541      .   S
    N208   C126      1.35012      .   S
    N207   N209      1.37535      .   S
    N207   C125      1.35003      .   S
    N220   N222      1.37536      .   S
    N220   C136      1.35006      .   S
    N219   N221      1.37536      .   S
    N219   C135      1.35006      .   S
    C156   H67       1.08575  1_565   S
    C156   N239      1.35014      .   S
    C155   H66       1.08575  1_565   S
    C155   N238      1.35013      .   S
    C100   H17       1.08584      .   S
    C100   N93       1.35011      .   S
    C101   H16       1.08599  1_655   S
    C101   N184      1.35012      .   S
    N241   N239      1.37538      .   S
    N240   N238      1.37539      .   S
    N185   N93       1.37544      .   S
    N186   N184      1.37541      .   S
    N210   C128      1.32584      .   S
    N209   C127      1.32584      .   S
    N222   C138      1.32585      .   S
    N221   C137      1.32584      .   S
    H36    C126      1.08577  1_545   S
    H37    C125      1.08589  1_645   S
    H47    C136      1.08585      .   S
    H46    C135      1.08585      .   S
    C125   N211      1.33377      .   S
    C126   N212      1.33390      .   S
    C135   N223      1.33392      .   S
    C136   N224      1.33392      .   S
    N239   C154      1.45211      .   S
    N238   C153      1.45074      .   S
    N93    C98       1.45199      .   S
    N184   C99       1.45199      .   S
    C127   N211      1.37074      .   S
    C127   H38       1.08462      .   S
    C128   N212      1.37077      .   S
    C128   H39       1.08474      .   S
    C138   N224      1.37077      .   S
    C138   H49       1.08476      .   S
    C137   N223      1.37077      .   S
    C137   H48       1.08475      .   S
    H13    C97       1.08388      .   S
    H12    C96       1.08360      .   S
    H62    C151      1.08383      .   S
    H63    C152      1.08384      .   S
    C153   H64       1.09654  1_565   S
    C153   N118      1.45835      .   S
    C154   H65       1.09616  1_565   S
    C154   N119      1.45768      .   S
    C98    H14       1.09639      .   S
    C98    N181      1.45773      .   S
    C99    H15       1.09638      .   S
    C99    N182      1.45772      .   S
    C96    N181      1.35032      .   S
    C96    N91       1.33792      .   S
    C97    N182      1.35029      .   S
    C97    N92       1.33769      .   S
    C151   N118      1.35029      .   S
    C151   N122      1.33768      .   S
    C152   N119      1.35028      .   S
    C152   N237      1.33768      .   S
    N119   N121      1.37370      .   S
    N118   N120      1.37367      .   S
    N181   N90       1.37373      .   S
    N182   N183      1.37381  1_655   S
    H20    C104      1.08307      .   S
    H50    C139      1.08309      .   S
    H21    C105      1.08297      .   S
    H51    C140      1.08297      .   S
    N91    C95       1.36901      .   S
    N92    C94       1.36909  1_655   S
    N237   C150      1.36895      .   S
    N122   C149      1.36895      .   S
    C104   N191      1.32811      .   S
    C104   N193      1.36895      .   S
    C140   N228      1.32815      .   S
    C140   N229      1.36908  1_655   S
    C139   N227      1.32809      .   S
    C139   N230      1.36876      .   S
    C105   N192      1.32812      .   S
    C105   N194      1.36896      .   S
    N120   C149      1.32811      .   S
    N121   C150      1.32810      .   S
    N90    C95       1.32813      .   S
    N183   C94       1.32815      .   S
    N227   N226      1.37371      .   S
    N228   N225      1.37381  1_655   S
    N191   N189      1.37370      .   S
    N192   N190      1.37374      .   S
    C150   H61       1.08308      .   S
    C95    H11       1.08299      .   S
    C149   H60       1.08308      .   S
    C94    H10       1.08293      .   S
    N194   C107      1.33771      .   S
    N230   C142      1.33792      .   S
    N193   C106      1.33769      .   S
    N229   C141      1.33770      .   S
    N226   C142      1.35029      .   S
    N226   C144      1.45778      .   S
    N225   C141      1.35029      .   S
    N225   C143      1.45774      .   S
    N190   C107      1.35029      .   S
    N190   C109      1.45769      .   S
    N189   C106      1.35029      .   S
    N189   C108      1.45722      .   S
    C106   H22       1.08381      .   S
    C107   H23       1.08382      .   S
    C142   H53       1.08389      .   S
    C141   H52       1.08390      .   S
    H25    C109      1.09626  1_565   S
    H24    C108      1.09604  1_565   S
    H55    C144      1.09638      .   S
    H54    C143      1.09637      .   S
    H8     C88       1.08476      .   S
    H9     C89       1.08477      .   S
    H78    C167      1.08472      .   S
    H79    C168      1.08473      .   S
    C108   N195      1.45303      .   S
    C143   N231      1.45200      .   S
    C144   N232      1.45200      .   S
    C109   N196      1.45212      .   S
    N255   C168      1.37093      .   S
    N255   C166      1.33460      .   S
    N179   C88       1.37077      .   S
    N179   C86       1.33391      .   S
    N180   C89       1.37076      .   S
    N180   C87       1.33392      .   S
    N254   C167      1.37076      .   S
    N254   C165      1.33391      .   S
    C89    N178      1.32585      .   S
    C88    N177      1.32585      .   S
    C167   N252      1.32585      .   S
    C168   N253      1.32584      .   S
    N232   N234      1.37543      .   S
    N232   C146      1.35011      .   S
    N231   N233      1.37542      .   S
    N231   C145      1.35011      .   S
    N195   N197      1.37540      .   S
    N195   C110      1.35014      .   S
    N196   N198      1.37538      .   S
    N196   C111      1.35013      .   S
    C87    H7        1.08586      .   S
    C87    N176      1.35017      .   S
    C86    H6        1.08586      .   S
    C86    N175      1.35006      .   S
    C165   H77       1.08576  1_545   S
    C165   N250      1.35014      .   S
    C166   H76       1.08589  1_645   S
    C166   N251      1.35002      .   S
    N177   N175      1.37535      .   S
    N178   N176      1.37541      .   S
    N252   N250      1.37541      .   S
    N253   N251      1.37536      .   S
    N234   C148      1.32574      .   S
    N233   C147      1.32589      .   S
    N198   C113      1.32584      .   S
    N197   C112      1.32584      .   S
    H27    C111      1.08576  1_565   S
    H26    C110      1.08575  1_565   S
    H56    C146      1.08584      .   S
    H57    C145      1.08599  1_655   S
    C111   N200      1.33383      .   S
    C110   N199      1.33123      .   S
    C145   N235      1.33397      .   S
    C146   N236      1.33274      .   S
    N175   C84       1.45206      .   S
    N176   C85       1.45191      .   S
    N251   C164      1.45205      .   S
    N250   C163      1.45204      .   S
    C148   N236      1.37054      .   S
    C148   H59       1.08479      .   S
    C147   N235      1.37079      .   S
    C147   H58       1.08469      .   S
    C112   N199      1.37015      .   S
    C112   H28       1.08479      .   S
    C113   N200      1.37075      .   S
    C113   H29       1.08478      .   S
    H73    C162      1.08426      .   S
    H72    C161      1.08381      .   S
    H2     C82       1.08388      .   S
    H3     C83       1.08388      .   S
    C84    H4        1.09618      .   S
    C84    N169      1.45779      .   S
    C85    H5        1.09642      .   S
    C85    N170      1.45778      .   S
    C164   H75       1.09629  1_545   S
    C164   N245      1.45777      .   S
    C163   H74       1.09626  1_545   S
    C163   N244      1.45773      .   S
    C162   N245      1.35027      .   S
    C162   N249      1.33776      .   S
    C161   N244      1.35026      .   S
    C161   N248      1.33771      .   S
    C82    N169      1.35028      .   S
    C82    N173      1.33748      .   S
    C83    N170      1.35029      .   S
    C83    N174      1.33768      .   S
    N170   N172      1.37372      .   S
    N169   N171      1.37365      .   S
    N244   N247      1.37310      .   S
    N245   N246      1.37386  1_655   S
    H30    C114      1.08388      .   S
    H31    C115      1.08303      .   S
    H40    C129      1.08300      .   S
    H41    C130      1.08301      .   S
