# CIF file generated by openbabel 2.4.90, see http://openbabel.sf.net
data_I
_chemical_name_common ''
_cell_length_a 20.472
_cell_length_b 12.631
_cell_length_c 15.386
_cell_angle_alpha 90.011
_cell_angle_beta 90.002
_cell_angle_gamma 90.012
_space_group_name_H-M_alt 'P 1'
_space_group_name_Hall 'P 1'
loop_
    _symmetry_equiv_pos_as_xyz
    x,y,z
loop_
    _atom_site_label
    _atom_site_type_symbol
    _atom_site_fract_x
    _atom_site_fract_y
    _atom_site_fract_z
    _atom_site_occupancy
    C0      C    0.36450   0.51108   0.90227   1.000
    C1      C    0.86450   0.51108   0.90227   1.000
    C2      C    0.38549   0.48891   0.40234   1.000
    C3      C    0.88549   0.48891   0.40234   1.000
    C4      C    0.13549   0.01110   0.59765   1.000
    C5      C    0.63549   0.01110   0.59765   1.000
    C6      C    0.11451   0.98893   0.09760   1.000
    C7      C    0.61451   0.98892   0.09764   1.000
    C8      C    0.13549   0.48894   0.09768   1.000
    C9      C    0.63549   0.48894   0.09768   1.000
    C10     C    0.11450   0.51111   0.59761   1.000
    C11     C    0.61450   0.51111   0.59761   1.000
    C12     C    0.36451   0.98892   0.40231   1.000
    C13     C    0.86451   0.98893   0.40231   1.000
    C14     C    0.38549   0.01110   0.90231   1.000
    C15     C    0.88549   0.01110   0.90231   1.000
