# CIF file generated by openbabel 2.4.90, see http://openbabel.sf.net
data_I
_chemical_name_common ''
_cell_length_a 20.472
_cell_length_b 12.631
_cell_length_c 15.386
_cell_angle_alpha 90.011
_cell_angle_beta 90.002
_cell_angle_gamma 90.012
_space_group_name_H-M_alt 'P 1'
_space_group_name_Hall 'P 1'
loop_
    _symmetry_equiv_pos_as_xyz
    x,y,z
loop_
    _atom_site_label
    _atom_site_type_symbol
    _atom_site_fract_x
    _atom_site_fract_y
    _atom_site_fract_z
    _atom_site_occupancy
    N0      N    0.72180   0.36264   0.16274   1.000
    N1      N    0.72180   0.13740   0.66271   1.000
    N2      N    0.47178   0.36261   0.33724   1.000
    N3      N    0.47178   0.13745   0.83723   1.000
    N4      N    0.52822   0.63742   0.66270   1.000
    N5      N    0.22179   0.13740   0.66270   1.000
    N6      N    0.97178   0.13745   0.83723   1.000
    N7      N    0.02822   0.86259   0.16272   1.000
    N8      N    0.52822   0.86259   0.16272   1.000
    N9      N    0.02822   0.63742   0.66271   1.000
    N10     N    0.27821   0.63739   0.83721   1.000
    N11     N    0.77821   0.63740   0.83722   1.000
    N12     N    0.22179   0.36264   0.16274   1.000
    N13     N    0.77821   0.86264   0.33723   1.000
    N14     N    0.27821   0.86263   0.33723   1.000
    N15     N    0.97178   0.36261   0.33725   1.000
    Zr16    Zr   1.00000   0.50001   0.99998   1.000
    O17     O    0.09792   0.45734   0.06853   1.000
    O18     O    0.99180   0.38559   0.95579   1.000
    O19     O    0.00820   0.61444   0.04417   1.000
    O20     O    0.01138   0.54063   0.89794   1.000
    O21     O    0.98862   0.45940   0.10202   1.000
    O22     O    0.90208   0.54269   0.93142   1.000
    Zr23    Zr   1.00000   0.00001   0.49997   1.000
    O24     O    0.09792   0.04270   0.56850   1.000
    O25     O    0.90208   0.95733   0.43143   1.000
    O26     O    0.98863   0.04063   0.60200   1.000
    O27     O    0.01137   0.95940   0.39794   1.000
    O28     O    0.00820   0.88557   0.54416   1.000
    O29     O    0.99180   0.11446   0.45578   1.000
    Zr30    Zr   0.75000   0.50001   0.49997   1.000
    O31     O    0.65208   0.54271   0.56850   1.000
    O32     O    0.84792   0.45732   0.43144   1.000
    O33     O    0.74180   0.38557   0.54415   1.000
    O34     O    0.73863   0.45941   0.39793   1.000
    O35     O    0.76136   0.54062   0.60199   1.000
    O36     O    0.75820   0.61446   0.45577   1.000
    Zr37    Zr   0.50000   0.50001   0.99998   1.000
    O38     O    0.59792   0.45734   0.06853   1.000
    O39     O    0.51138   0.54063   0.89792   1.000
    O40     O    0.49180   0.38558   0.95578   1.000
    O41     O    0.48862   0.45940   0.10202   1.000
    O42     O    0.50820   0.61444   0.04417   1.000
    O43     O    0.40208   0.54269   0.93142   1.000
    Zr44    Zr   0.25000   0.50001   0.49997   1.000
    O45     O    0.15208   0.54271   0.56851   1.000
    O46     O    0.34792   0.45732   0.43144   1.000
    O47     O    0.24180   0.38556   0.54414   1.000
    O48     O    0.26136   0.54062   0.60199   1.000
    O49     O    0.23863   0.45941   0.39793   1.000
    O50     O    0.25820   0.61446   0.45577   1.000
    Zr51    Zr   0.50000   0.00001   0.49998   1.000
    O52     O    0.40208   0.95733   0.43142   1.000
    O53     O    0.48862   0.04063   0.60201   1.000
    O54     O    0.50820   0.88557   0.54416   1.000
    O55     O    0.49180   0.11446   0.45578   1.000
    O56     O    0.51137   0.95940   0.39794   1.000
    O57     O    0.59792   0.04270   0.56852   1.000
    Zr58    Zr   0.25000   0.00001   0.99997   1.000
    O59     O    0.15208   0.95732   0.06851   1.000
    O60     O    0.34792   0.04271   0.93143   1.000
    O61     O    0.23863   0.04061   0.89791   1.000
    O62     O    0.25820   0.88556   0.95577   1.000
    O63     O    0.24180   0.11447   0.04417   1.000
    O64     O    0.26137   0.95941   0.10201   1.000
    Zr65    Zr   0.75000   0.00001   0.99998   1.000
    O66     O    0.73863   0.04062   0.89794   1.000
    O67     O    0.74180   0.11447   0.04417   1.000
    O68     O    0.75820   0.88556   0.95578   1.000
    O69     O    0.76137   0.95942   0.10201   1.000
    O70     O    0.65208   0.95732   0.06852   1.000
    O71     O    0.84792   0.04271   0.93143   1.000
loop_
    _geom_bond_atom_site_label_1
    _geom_bond_atom_site_label_2
    _geom_bond_distance
    _geom_bond_site_symmetry_2
    _ccdc_geom_bond_type
    Zr16   O17       2.32861  1_656   S
    N12    O17       3.15656      .   S
    Zr16   O18       1.60590      .   S
    N6     O18       3.64906      .   S
    Zr16   O19       1.60601  1_656   S
    N7     O19       3.64907      .   S
    Zr16   O20       1.66810  1_655   S
    N9     O20       3.83595      .   S
    Zr16   O21       1.66812  1_556   S
    N15    O21       3.83580      .   S
    Zr16   O22       2.32861      .   S
    N11    O22       3.15656      .   S
    Zr23   O24       2.32822  1_655   S
    N5     O24       3.15592      .   S
    Zr23   O25       2.32821  1_545   S
    N13    O25       3.15586      .   S
    Zr23   O26       1.66788      .   S
    N6     O26       3.83560      .   S
    Zr23   O27       1.66782  1_645   S
    N7     O27       3.83539      .   S
    Zr23   O28       1.60639  1_645   S
    N9     O28       3.64989      .   S
    Zr23   O29       1.60637      .   S
    N15    O29       3.64991      .   S
    Zr30   O31       2.32841      .   S
    N4     O31       3.15624      .   S
    Zr30   O32       2.32838      .   S
    N15    O32       3.15625      .   S
    Zr30   O33       1.60630      .   S
    N1     O33       3.65001      .   S
    Zr30   O34       1.66770      .   S
    N0     O34       3.83486      .   S
    Zr30   O35       1.66761      .   S
    N11    O35       3.83533      .   S
    Zr30   O36       1.60647      .   S
    N13    O36       3.64995      .   S
    Zr37   O38       2.32862  1_556   S
    N0     O38       3.15660      .   S
    Zr37   O39       1.66831      .   S
    N4     O39       3.83589      .   S
    Zr37   O40       1.60593      .   S
    N3     O40       3.64909      .   S
    Zr37   O41       1.66808  1_556   S
    N2     O41       3.83579      .   S
    Zr37   O42       1.60600  1_556   S
    N8     O42       3.64906      .   S
    Zr37   O43       2.32863      .   S
    N10    O43       3.15662      .   S
    Zr44   O45       2.32844      .   S
    N9     O45       3.15633      .   S
    Zr44   O46       2.32838      .   S
    N2     O46       3.15627      .   S
    Zr44   O47       1.60628      .   S
    N5     O47       3.64993      .   S
    Zr44   O48       1.66758      .   S
    N10    O48       3.83524      .   S
    Zr44   O49       1.66770      .   S
    N12    O49       3.83487      .   S
    Zr44   O50       1.60646      .   S
    N14    O50       3.64993      .   S
    Zr51   O52       2.32833  1_545   S
    N14    O52       3.15584      .   S
    Zr51   O53       1.66784      .   S
    N3     O53       3.83541      .   S
    Zr51   O54       1.60631  1_545   S
    N4     O54       3.64981      .   S
    Zr51   O55       1.60642      .   S
    N2     O55       3.64993      .   S
    Zr51   O56       1.66791  1_545   S
    N8     O56       3.83550      .   S
    Zr51   O57       2.32828      .   S
    N1     O57       3.15596      .   S
    Zr58   O59       2.32834  1_546   S
    N7     O59       3.15628      .   S
    Zr58   O60       2.32838      .   S
    N3     O60       3.15634      .   S
    Zr58   O61       1.66837      .   S
    N5     O61       3.83564      .   S
    Zr58   O62       1.60629  1_545   S
    N10    O62       3.64963      .   S
    Zr58   O63       1.60636  1_556   S
    N12    O63       3.64968      .   S
    Zr58   O64       1.66800  1_546   S
    N14    O64       3.83572      .   S
    Zr65   O66       1.66800      .   S
    N1     O66       3.83584      .   S
    Zr65   O67       1.60635  1_556   S
    N0     O67       3.64966      .   S
    Zr65   O68       1.60627  1_545   S
    N11    O68       3.64962      .   S
    Zr65   O69       1.66788  1_546   S
    N13    O69       3.83579      .   S
    Zr65   O70       2.32834  1_546   S
    N8     O70       3.15620      .   S
    Zr65   O71       2.32841      .   S
    N6     O71       3.15635      .   S
