# CIF file generated by openbabel 2.4.90, see http://openbabel.sf.net
data_I
_chemical_name_common ''
_cell_length_a 14.074
_cell_length_b 16.943
_cell_length_c 16.943
_cell_angle_alpha 111.854
_cell_angle_beta 91.018
_cell_angle_gamma 91.021
_space_group_name_H-M_alt 'P 1'
_space_group_name_Hall 'P 1'
loop_
    _symmetry_equiv_pos_as_xyz
    x,y,z
loop_
    _atom_site_label
    _atom_site_type_symbol
    _atom_site_fract_x
    _atom_site_fract_y
    _atom_site_fract_z
    _atom_site_occupancy
    Lv0     Lv   0.50000   0.49999   0.24991   1.000
    Lv1     Lv   0.00000   0.99999   0.24998   1.000
    Lv2     Lv   0.00000   0.49999   0.24997   1.000
    Lv3     Lv   0.25001   0.24999   0.99995   1.000
    Lv4     Lv   0.50000   0.49999   0.74997   1.000
    Lv5     Lv   0.75000   0.74999   0.99998   1.000
    Lv6     Lv   0.75000   0.24999   0.49997   1.000
    Lv7     Lv   0.75000   0.24999   0.99998   1.000
    Lv8     Lv   0.25000   0.74999   0.49997   1.000
    Lv9     Lv   0.50000   0.99999   0.74993   1.000
    Lv10    Lv   0.00000   0.99999   0.74996   1.000
    Lv11    Lv   0.00000   0.49999   0.74997   1.000
    Lv12    Lv   0.75000   0.74999   0.49998   1.000
    Lv13    Lv   0.25001   0.24999   0.49997   1.000
    Lv14    Lv   0.50000   0.99999   0.24989   1.000
    Lv15    Lv   0.25000   0.74999   0.99996   1.000
