# CIF file generated by openbabel 2.4.90, see http://openbabel.sf.net
data_I
_chemical_name_common ''
_cell_length_a 14.074
_cell_length_b 16.943
_cell_length_c 16.943
_cell_angle_alpha 111.854
_cell_angle_beta 91.018
_cell_angle_gamma 91.021
_space_group_name_H-M_alt 'P 1'
_space_group_name_Hall 'P 1'
loop_
    _symmetry_equiv_pos_as_xyz
    x,y,z
loop_
    _atom_site_label
    _atom_site_type_symbol
    _atom_site_fract_x
    _atom_site_fract_y
    _atom_site_fract_z
    _atom_site_occupancy
    Cd0     Cd   0.37500   0.46379   0.53618   1.000
    Cd1     Cd   0.37500   0.96379   0.03619   1.000
    Cd2     Cd   0.37500   0.96379   0.53618   1.000
    Cd3     Cd   0.87499   0.46380   0.03619   1.000
    Cd4     Cd   0.87499   0.46380   0.53618   1.000
    Cd5     Cd   0.87498   0.96379   0.03619   1.000
    Cd6     Cd   0.87498   0.96379   0.53618   1.000
    Cd7     Cd   0.12502   0.03619   0.46378   1.000
    Cd8     Cd   0.12502   0.03619   0.96377   1.000
    Cd9     Cd   0.12501   0.53618   0.46378   1.000
    Cd10    Cd   0.12501   0.53618   0.96377   1.000
    Cd11    Cd   0.62500   0.03619   0.46378   1.000
    Cd12    Cd   0.62501   0.03619   0.96377   1.000
    Cd13    Cd   0.62500   0.53619   0.46378   1.000
    Cd14    Cd   0.62500   0.53618   0.96377   1.000
    Cd15    Cd   0.37500   0.46380   0.03610   1.000
    Br16    Br   0.28826   0.45245   0.37652   1.000
    Br17    Br   0.28826   0.45245   0.87651   1.000
    Br18    Br   0.28825   0.95244   0.37652   1.000
    Br19    Br   0.28825   0.95244   0.87651   1.000
    Br20    Br   0.78824   0.45245   0.37652   1.000
    Br21    Br   0.21176   0.04754   0.12344   1.000
    Br22    Br   0.21176   0.04754   0.62340   1.000
    Br23    Br   0.21176   0.54753   0.12344   1.000
    Br24    Br   0.21176   0.54753   0.62340   1.000
    Br25    Br   0.71175   0.04754   0.12344   1.000
    Br26    Br   0.71175   0.04753   0.62340   1.000
    Br27    Br   0.71174   0.54753   0.12344   1.000
    Br28    Br   0.71175   0.54753   0.62340   1.000
    Br29    Br   0.03826   0.37653   0.45244   1.000
    Br30    Br   0.03826   0.37653   0.95243   1.000
    Br31    Br   0.03826   0.87653   0.45244   1.000
    Br32    Br   0.03826   0.87652   0.95243   1.000
    Br33    Br   0.53825   0.37653   0.45244   1.000
    Br34    Br   0.53825   0.37653   0.95243   1.000
    Br35    Br   0.53824   0.87653   0.45244   1.000
    Br36    Br   0.53824   0.87652   0.95243   1.000
    Br37    Br   0.78824   0.45244   0.87651   1.000
    Br38    Br   0.78824   0.95244   0.37652   1.000
    Br39    Br   0.78824   0.95244   0.87651   1.000
    Br40    Br   0.46176   0.12346   0.04752   1.000
    Br41    Br   0.46176   0.12345   0.54751   1.000
    Br42    Br   0.46176   0.62345   0.04752   1.000
    Br43    Br   0.46176   0.62345   0.54751   1.000
    Br44    Br   0.96174   0.12346   0.04753   1.000
    Br45    Br   0.96175   0.12345   0.54752   1.000
    Br46    Br   0.96174   0.62345   0.04750   1.000
    Br47    Br   0.96174   0.62345   0.54752   1.000
loop_
    _geom_bond_atom_site_label_1
    _geom_bond_atom_site_label_2
    _geom_bond_distance
    _geom_bond_site_symmetry_2
    _ccdc_geom_bond_type
    Cd15   Br23      2.85566      .   S
    Cd15   Br34      2.85499  1_554   S
    Cd5    Br25      2.85513  1_565   S
    Cd5    Br32      2.85579  1_654   S
    Cd1    Br21      2.85510  1_565   S
    Cd1    Br36      2.85548  1_554   S
    Cd3    Br27      2.85518      .   S
    Cd3    Br30      2.85581  1_654   S
    Br46   Cd10      2.85562  1_654   S
    Br42   Cd14      2.85542  1_554   S
    Br40   Cd12      2.85540  1_554   S
    Br44   Cd8       2.85579  1_654   S
    Br18   Cd7       2.85516  1_565   S
    Br20   Cd13      2.85523      .   S
    Br38   Cd11      2.85518  1_565   S
    Br16   Cd9       2.85519      .   S
    Br33   Cd0       2.85527      .   S
    Br31   Cd6       2.85561  1_455   S
    Br29   Cd4       2.85564  1_455   S
    Br35   Cd2       2.85529      .   S
    Cd11   Br41      2.85521      .   S
    Cd7    Br45      2.85561  1_455   S
    Cd9    Br47      2.85561  1_455   S
    Cd13   Br43      2.85523      .   S
    Cd0    Br24      2.85499      .   S
    Cd2    Br22      2.85495  1_565   S
    Cd4    Br28      2.85495      .   S
    Cd6    Br26      2.85493  1_565   S
    Br37   Cd14      2.85520      .   S
    Br19   Cd8       2.85520  1_565   S
    Br39   Cd12      2.85517  1_565   S
    Br17   Cd10      2.85523      .   S
