# CIF file generated by openbabel 2.4.90, see http://openbabel.sf.net
data_I
_chemical_name_common ''
_cell_length_a 14.074
_cell_length_b 16.943
_cell_length_c 16.943
_cell_angle_alpha 111.854
_cell_angle_beta 91.018
_cell_angle_gamma 91.021
_space_group_name_H-M_alt 'P 1'
_space_group_name_Hall 'P 1'
loop_
    _symmetry_equiv_pos_as_xyz
    x,y,z
loop_
    _atom_site_label
    _atom_site_type_symbol
    _atom_site_fract_x
    _atom_site_fract_y
    _atom_site_fract_z
    _atom_site_occupancy
    Zr0     Zr   0.37500   0.46380   0.03610   1.000
    Zr1     Zr   0.37500   0.46379   0.53618   1.000
    Zr2     Zr   0.37500   0.96379   0.03619   1.000
    Zr3     Zr   0.37500   0.96379   0.53618   1.000
    Zr4     Zr   0.87499   0.46380   0.03619   1.000
    Zr5     Zr   0.87499   0.46380   0.53618   1.000
    Zr6     Zr   0.87498   0.96379   0.03619   1.000
    Zr7     Zr   0.87498   0.96379   0.53618   1.000
    Zr8     Zr   0.12502   0.03619   0.46378   1.000
    Zr9     Zr   0.12502   0.03619   0.96377   1.000
    Zr10    Zr   0.12501   0.53618   0.46378   1.000
    Zr11    Zr   0.12501   0.53618   0.96377   1.000
    Zr12    Zr   0.62500   0.03619   0.46378   1.000
    Zr13    Zr   0.62501   0.03619   0.96377   1.000
    Zr14    Zr   0.62500   0.53619   0.46378   1.000
    Zr15    Zr   0.62500   0.53618   0.96377   1.000
    Zr16    Zr   0.21176   0.04754   0.12344   1.000
    Zr17    Zr   0.21176   0.04754   0.62340   1.000
    Zr18    Zr   0.21176   0.54753   0.12344   1.000
    Zr19    Zr   0.21176   0.54753   0.62340   1.000
    Zr20    Zr   0.71175   0.04754   0.12344   1.000
    Zr21    Zr   0.71175   0.04753   0.62340   1.000
    Zr22    Zr   0.71174   0.54753   0.12344   1.000
    Zr23    Zr   0.71175   0.54753   0.62340   1.000
    Zr24    Zr   0.03826   0.37653   0.45244   1.000
    Zr25    Zr   0.03826   0.37653   0.95243   1.000
    Zr26    Zr   0.03826   0.87653   0.45244   1.000
    Zr27    Zr   0.03826   0.87652   0.95243   1.000
    Zr28    Zr   0.53825   0.37653   0.45244   1.000
    Zr29    Zr   0.53825   0.37653   0.95243   1.000
    Zr30    Zr   0.53824   0.87653   0.45244   1.000
    Zr31    Zr   0.53824   0.87652   0.95243   1.000
    Zr32    Zr   0.28826   0.45245   0.37652   1.000
    Zr33    Zr   0.28826   0.45245   0.87651   1.000
    Zr34    Zr   0.28825   0.95244   0.37652   1.000
    Zr35    Zr   0.28825   0.95244   0.87651   1.000
    Zr36    Zr   0.78824   0.45245   0.37652   1.000
    Zr37    Zr   0.78824   0.45244   0.87651   1.000
    Zr38    Zr   0.78824   0.95244   0.37652   1.000
    Zr39    Zr   0.78824   0.95244   0.87651   1.000
    Zr40    Zr   0.46176   0.12346   0.04752   1.000
    Zr41    Zr   0.46176   0.12345   0.54751   1.000
    Zr42    Zr   0.46176   0.62345   0.04752   1.000
    Zr43    Zr   0.46176   0.62345   0.54751   1.000
    Zr44    Zr   0.96174   0.12346   0.04753   1.000
    Zr45    Zr   0.96175   0.12345   0.54752   1.000
    Zr46    Zr   0.96174   0.62345   0.04750   1.000
    Zr47    Zr   0.96174   0.62345   0.54752   1.000
    O48     O    0.29338   0.50567   0.07977   1.000
    O49     O    0.45662   0.42016   0.99426   1.000
    O50     O    0.79337   0.00567   0.07981   1.000
    O51     O    0.95662   0.92016   0.99431   1.000
    O52     O    0.29338   0.00567   0.07981   1.000
    O53     O    0.45662   0.92016   0.99431   1.000
    O54     O    0.79337   0.50567   0.07981   1.000
    O55     O    0.95663   0.42016   0.99431   1.000
    O56     O    0.04338   0.57982   0.00563   1.000
    O57     O    0.54338   0.57982   0.00564   1.000
    O58     O    0.54338   0.07982   0.00564   1.000
    O59     O    0.04338   0.07982   0.00565   1.000
    O60     O    0.20664   0.99432   0.42015   1.000
    O61     O    0.70662   0.49432   0.42015   1.000
    O62     O    0.70662   0.99432   0.42015   1.000
    O63     O    0.20663   0.49432   0.42015   1.000
    O64     O    0.45663   0.42016   0.49431   1.000
    O65     O    0.95662   0.92016   0.49431   1.000
    O66     O    0.95662   0.42016   0.49431   1.000
    O67     O    0.45662   0.92016   0.49431   1.000
    O68     O    0.54338   0.07982   0.50565   1.000
    O69     O    0.04338   0.07982   0.50565   1.000
    O70     O    0.04338   0.57982   0.50565   1.000
    O71     O    0.54338   0.57982   0.50565   1.000
    O72     O    0.29338   0.50566   0.57979   1.000
    O73     O    0.29338   0.00566   0.57979   1.000
    O74     O    0.79337   0.50566   0.57979   1.000
    O75     O    0.79337   0.00566   0.57979   1.000
    O76     O    0.70662   0.49431   0.92014   1.000
    O77     O    0.20664   0.99431   0.92014   1.000
    O78     O    0.70662   0.99431   0.92014   1.000
    O79     O    0.20664   0.49431   0.92014   1.000
    N80     N    0.50000   0.49999   0.24991   1.000
    O81     O    0.46098   0.48839   0.17488   1.000
    O82     O    0.53902   0.51159   0.32499   1.000
    N83     N    0.00000   0.99999   0.24998   1.000
    O84     O    0.96097   0.98839   0.17494   1.000
    O85     O    0.03903   0.01159   0.32503   1.000
    N86     N    0.00000   0.49999   0.24997   1.000
    O87     O    0.03903   0.51159   0.32502   1.000
    O88     O    0.96097   0.48839   0.17493   1.000
    N89     N    0.25001   0.24999   0.99995   1.000
    O90     O    0.21099   0.17494   0.98834   1.000
    O91     O    0.28903   0.32504   0.01155   1.000
    N92     N    0.50000   0.49999   0.74997   1.000
    O93     O    0.53903   0.51159   0.82502   1.000
    O94     O    0.46098   0.48839   0.67493   1.000
    N95     N    0.75000   0.74999   0.99998   1.000
    O96     O    0.78901   0.82504   0.01159   1.000
    O97     O    0.71098   0.67494   0.98837   1.000
    N98     N    0.75000   0.24999   0.49997   1.000
    O99     O    0.71098   0.17494   0.48835   1.000
    O100    O    0.78902   0.32504   0.51158   1.000
    N101    N    0.75000   0.24999   0.99998   1.000
    O102    O    0.78902   0.32504   0.01159   1.000
    O103    O    0.71098   0.17494   0.98837   1.000
    N104    N    0.25000   0.74999   0.49997   1.000
    O105    O    0.21098   0.67494   0.48837   1.000
    O106    O    0.28902   0.82503   0.51158   1.000
    N107    N    0.50000   0.99999   0.74993   1.000
    O108    O    0.46098   0.98839   0.67491   1.000
    O109    O    0.53903   0.01159   0.82500   1.000
    N110    N    0.00000   0.99999   0.74996   1.000
    O111    O    0.03903   0.01159   0.82501   1.000
    O112    O    0.96097   0.98839   0.67492   1.000
    N113    N    0.00000   0.49999   0.74997   1.000
    O114    O    0.03903   0.51159   0.82502   1.000
    O115    O    0.96097   0.48839   0.67493   1.000
    N116    N    0.75000   0.74999   0.49998   1.000
    O117    O    0.78902   0.82504   0.51158   1.000
    O118    O    0.71098   0.67494   0.48838   1.000
    N119    N    0.25001   0.24999   0.49997   1.000
    O120    O    0.28903   0.32504   0.51158   1.000
    O121    O    0.21099   0.17494   0.48837   1.000
    N122    N    0.50000   0.99999   0.24989   1.000
    O123    O    0.53903   0.01159   0.32498   1.000
    O124    O    0.46097   0.98839   0.17474   1.000
    N125    N    0.25000   0.74999   0.99996   1.000
    O126    O    0.21098   0.67494   0.98836   1.000
    O127    O    0.28902   0.82504   0.01158   1.000
loop_
    _geom_bond_atom_site_label_1
    _geom_bond_atom_site_label_2
    _geom_bond_distance
    _geom_bond_site_symmetry_2
    _ccdc_geom_bond_type
    Zr0    O48       1.42783      .   S
    Zr18   O48       1.42783      .   S
    Zr0    O49       1.42750  1_554   S
    Zr29   O49       1.42750      .   S
    Zr6    O50       1.42757  1_565   S
    Zr20   O50       1.42757      .   S
    Zr6    O51       1.42789  1_554   S
    Zr27   O51       1.42789  1_455   S
    Zr2    O52       1.42755  1_565   S
    Zr16   O52       1.42755      .   S
    Zr2    O53       1.42774  1_554   S
    Zr31   O53       1.42774      .   S
    Zr4    O54       1.42759      .   S
    Zr22   O54       1.42759      .   S
    Zr4    O55       1.42791  1_554   S
    Zr25   O55       1.42791  1_455   S
    Zr46   O56       1.42781  1_655   S
    Zr11   O56       1.42781  1_556   S
    Zr42   O57       1.42771      .   S
    Zr15   O57       1.42771  1_556   S
    Zr40   O58       1.42770      .   S
    Zr13   O58       1.42770  1_556   S
    Zr44   O59       1.42789  1_655   S
    Zr9    O59       1.42789  1_556   S
    Zr34   O60       1.42758      .   S
    Zr8    O60       1.42758  1_545   S
    Zr36   O61       1.42762      .   S
    Zr14   O61       1.42762      .   S
    Zr38   O62       1.42759      .   S
    Zr12   O62       1.42759  1_545   S
    Zr32   O63       1.42760      .   S
    Zr10   O63       1.42760      .   S
    Zr28   O64       1.42763      .   S
    Zr1    O64       1.42763      .   S
    Zr26   O65       1.42781  1_455   S
    Zr7    O65       1.42781      .   S
    Zr24   O66       1.42782  1_455   S
    Zr5    O66       1.42782      .   S
    Zr30   O67       1.42764      .   S
    Zr3    O67       1.42764      .   S
    Zr12   O68       1.42760      .   S
    Zr41   O68       1.42760      .   S
    Zr8    O69       1.42781      .   S
    Zr45   O69       1.42781  1_655   S
    Zr10   O70       1.42781      .   S
    Zr47   O70       1.42781  1_655   S
    Zr14   O71       1.42762      .   S
    Zr43   O71       1.42762      .   S
    Zr1    O72       1.42750      .   S
    Zr19   O72       1.42750      .   S
    Zr3    O73       1.42747  1_565   S
    Zr17   O73       1.42747      .   S
    Zr5    O74       1.42748      .   S
    Zr23   O74       1.42748      .   S
    Zr7    O75       1.42747  1_565   S
    Zr21   O75       1.42747      .   S
    Zr37   O76       1.42760      .   S
    Zr15   O76       1.42760      .   S
    Zr35   O77       1.42760      .   S
    Zr9    O77       1.42760  1_545   S
    Zr39   O78       1.42759      .   S
    Zr13   O78       1.42759  1_545   S
    Zr33   O79       1.42761      .   S
    Zr11   O79       1.42761      .   S
    N80    O81       1.31978      .   S
    Zr0    O81       2.51359      .   S
    N80    O82       1.32043      .   S
    Zr14   O82       2.51372      .   S
    N83    O84       1.31996  1_455   S
    Zr6    O84       2.51318      .   S
    N83    O85       1.32000  1_565   S
    Zr8    O85       2.51323      .   S
    N86    O87       1.32007      .   S
    Zr10   O87       2.51328      .   S
    N86    O88       1.31989  1_455   S
    Zr4    O88       2.51312      .   S
    N89    O90       1.31993      .   S
    Zr9    O90       2.51324      .   S
    N89    O91       1.32000  1_556   S
    Zr0    O91       2.51330      .   S
    N92    O93       1.31999      .   S
    Zr15   O93       2.51322      .   S
    N92    O94       1.31988      .   S
    Zr1    O94       2.51310      .   S
    N95    O96       1.31995  1_556   S
    Zr6    O96       2.51314      .   S
    N95    O97       1.31996      .   S
    Zr15   O97       2.51314      .   S
    N98    O99       1.31990      .   S
    Zr12   O99       2.51322      .   S
    N98    O100      1.31992      .   S
    Zr5    O100      2.51310      .   S
    N101   O102      1.31991  1_556   S
    Zr4    O102      2.51314      .   S
    N101   O103      1.31997      .   S
    Zr13   O103      2.51315      .   S
    N104   O105      1.31996      .   S
    Zr10   O105      2.51312      .   S
    N104   O106      1.31991      .   S
    Zr3    O106      2.51314      .   S
    N107   O108      1.31958      .   S
    Zr3    O108      2.51283      .   S
    N107   O109      1.32029  1_565   S
    Zr13   O109      2.51349      .   S
    N110   O111      1.32002  1_565   S
    Zr9    O111      2.51334      .   S
    N110   O112      1.31993  1_455   S
    Zr7    O112      2.51307      .   S
    N113   O114      1.32004      .   S
    Zr11   O114      2.51326      .   S
    N113   O115      1.31991  1_455   S
    Zr5    O115      2.51314      .   S
    N116   O117      1.31995      .   S
    Zr7    O117      2.51310      .   S
    N116   O118      1.31992      .   S
    Zr14   O118      2.51316      .   S
    N119   O120      1.31993      .   S
    Zr1    O120      2.51313      .   S
    N119   O121      1.31994      .   S
    Zr8    O121      2.51313      .   S
    N122   O123      1.32066  1_565   S
    Zr12   O123      2.51386      .   S
    N122   O124      1.32150      .   S
    Zr2    O124      2.51027      .   S
    N125   O126      1.31998      .   S
    Zr11   O126      2.51318      .   S
    N125   O127      1.31991  1_556   S
    Zr2    O127      2.51311      .   S
