# CIF file generated by openbabel 2.4.90, see http://openbabel.sf.net
data_I
_chemical_name_common ''
_cell_length_a 13.563
_cell_length_b 13.894
_cell_length_c 16.09
_cell_angle_alpha 92.116
_cell_angle_beta 97.132
_cell_angle_gamma 91.853
_space_group_name_H-M_alt 'P 1'
_space_group_name_Hall 'P 1'
loop_
    _symmetry_equiv_pos_as_xyz
    x,y,z
loop_
    _atom_site_label
    _atom_site_type_symbol
    _atom_site_fract_x
    _atom_site_fract_y
    _atom_site_fract_z
    _atom_site_occupancy
    Cd0     Cd   0.24885   0.75871   0.23945   1.000
    Cd1     Cd   0.34516   0.66913   0.74563   1.000
    Cd2     Cd   0.43620   0.55471   0.25701   1.000
    Cd3     Cd   0.75116   0.24124   0.75704   1.000
    Cd4     Cd   0.65466   0.33047   0.25081   1.000
    Cd5     Cd   0.56388   0.44526   0.73950   1.000
