# CIF file generated by openbabel 2.4.90, see http://openbabel.sf.net
data_I
_chemical_name_common ''
_cell_length_a 13.563
_cell_length_b 13.894
_cell_length_c 16.09
_cell_angle_alpha 92.116
_cell_angle_beta 97.132
_cell_angle_gamma 91.853
_space_group_name_H-M_alt 'P 1'
_space_group_name_Hall 'P 1'
loop_
    _symmetry_equiv_pos_as_xyz
    x,y,z
loop_
    _atom_site_label
    _atom_site_type_symbol
    _atom_site_fract_x
    _atom_site_fract_y
    _atom_site_fract_z
    _atom_site_occupancy
    N0      N    0.13598   0.53565   0.83199   1.000
    N1      N    0.53631   0.13544   0.34452   1.000
    N2      N    0.86547   0.46410   0.16449   1.000
    N3      N    0.46372   0.86568   0.65208   1.000
    Zr4     Zr   0.56388   0.44526   0.73950   1.000
    O5      O    0.55206   0.35802   0.62436   1.000
    O6      O    0.64958   0.45324   0.86229   1.000
    O7      O    0.54793   0.56868   0.71414   1.000
    O8      O    0.43795   0.46118   0.76615   1.000
    Zr9     Zr   0.24885   0.75871   0.23945   1.000
    O10     O    0.31102   0.77187   0.35478   1.000
    O11     O    0.23361   0.69408   0.12673   1.000
    Zr12    Zr   0.75116   0.24124   0.75704   1.000
    O13     O    0.68899   0.22838   0.64174   1.000
    O14     O    0.76677   0.30583   0.86977   1.000
    Zr15    Zr   0.34516   0.66913   0.74563   1.000
    Zr16    Zr   0.43620   0.55471   0.25701   1.000
    O17     O    0.45212   0.43158   0.28239   1.000
    O18     O    0.56247   0.53873   0.23035   1.000
    O19     O    0.44800   0.64224   0.37216   1.000
    O20     O    0.35084   0.54668   0.13421   1.000
    Zr21    Zr   0.65466   0.33047   0.25081   1.000
    O22     O    0.13447   0.67901   0.22073   1.000
    O23     O    0.32704   0.87088   0.26623   1.000
    O24     O    0.86589   0.32090   0.77577   1.000
    O25     O    0.67297   0.12936   0.73030   1.000
    O26     O    0.28433   0.62713   0.76958   1.000
    O27     O    0.38296   0.72539   0.71975   1.000
    O28     O    0.71591   0.37253   0.22689   1.000
    O29     O    0.61693   0.27461   0.27674   1.000
loop_
    _geom_bond_atom_site_label_1
    _geom_bond_atom_site_label_2
    _geom_bond_distance
    _geom_bond_site_symmetry_2
    _ccdc_geom_bond_type
    Zr4    O5        2.16208      .   S
    N1     O5        5.34538      .   S
    Zr4    O6        2.16160      .   S
    N2     O6        5.34985  1_554   S
    Zr4    O7        1.79090      .   S
    N3     O7        4.43349      .   S
    Zr4    O8        1.83010      .   S
    N0     O8        4.49863      .   S
    Zr9    O10       1.94020      .   S
    N3     O10       5.07692      .   S
    Zr9    O11       1.97823      .   S
    N0     O11       5.15455  1_556   S
    Zr12   O13       1.93961      .   S
    N1     O13       5.07322      .   S
    Zr12   O14       1.97785      .   S
    N2     O14       5.15545  1_554   S
    Zr16   O17       1.78707      .   S
    N1     O17       4.42233      .   S
    Zr16   O18       1.83479      .   S
    N2     O18       4.51249      .   S
    Zr16   O19       2.16447      .   S
    N3     O19       5.35295      .   S
    Zr16   O20       2.15965      .   S
    N0     O20       5.34401  1_556   S
    Zr9    O22       1.86326      .   S
    N2     O22       4.61764  1_655   S
    Zr9    O23       1.86257      .   S
    N1     O23       4.60978  1_545   S
    Zr12   O24       1.86678      .   S
    N0     O24       4.62727  1_455   S
    Zr12   O25       1.85920      .   S
    N3     O25       4.60015  1_565   S
    Zr15   O26       1.11088      .   S
    N0     O26       2.66511      .   S
    Zr15   O27       1.04805      .   S
    N3     O27       2.54933      .   S
    N2     O28       2.67854      .   S
    Zr21   O28       1.11544      .   S
    N1     O29       2.53747      .   S
    Zr21   O29       1.04388      .   S
