# CIF file generated by openbabel 2.4.90, see http://openbabel.sf.net
data_I
_chemical_name_common ''
_cell_length_a 13.563
_cell_length_b 13.894
_cell_length_c 16.09
_cell_angle_alpha 92.116
_cell_angle_beta 97.132
_cell_angle_gamma 91.853
_space_group_name_H-M_alt 'P 1'
_space_group_name_Hall 'P 1'
loop_
    _symmetry_equiv_pos_as_xyz
    x,y,z
loop_
    _atom_site_label
    _atom_site_type_symbol
    _atom_site_fract_x
    _atom_site_fract_y
    _atom_site_fract_z
    _atom_site_occupancy
    Zr0     Zr   0.56388   0.44526   0.73950   1.000
    Zr1     Zr   0.24885   0.75871   0.23945   1.000
    Zr2     Zr   0.34516   0.66913   0.74563   1.000
    Zr3     Zr   0.43620   0.55471   0.25701   1.000
    Zr4     Zr   0.75116   0.24124   0.75704   1.000
    Zr5     Zr   0.65466   0.33047   0.25081   1.000
    N6      N    0.13598   0.53565   0.83199   1.000
    O7      O    0.19869   0.60040   0.78060   1.000
    O8      O    0.24831   0.56984   0.80644   1.000
    O9      O    0.31202   0.47709   0.79280   1.000
    O10     O    0.26547   0.53864   0.01141   1.000
    O11     O    0.21837   0.62946   0.01400   1.000
    O12     O    0.98374   0.38859   0.78068   1.000
    O13     O    0.97751   0.41252   0.80832   1.000
    N14     N    0.53631   0.13544   0.34452   1.000
    O15     O    0.59534   0.19242   0.29310   1.000
    O16     O    0.41887   0.97893   0.30691   1.000
    O17     O    0.39160   0.98716   0.27911   1.000
    O18     O    0.54024   0.27078   0.50923   1.000
    O19     O    0.62683   0.21552   0.52644   1.000
    O20     O    0.56305   0.24507   0.31224   1.000
    O21     O    0.46804   0.30845   0.30777   1.000
    N22     N    0.86547   0.46410   0.16449   1.000
    O23     O    0.80194   0.39928   0.21588   1.000
    O24     O    0.75237   0.42989   0.19006   1.000
    O25     O    0.68874   0.52274   0.20369   1.000
    O26     O    0.73528   0.46123   0.98509   1.000
    O27     O    0.78237   0.37042   0.98249   1.000
    O28     O    0.01698   0.61127   0.21582   1.000
    O29     O    0.02322   0.58734   0.18818   1.000
    N30     N    0.46372   0.86568   0.65208   1.000
    O31     O    0.58115   0.02161   0.68967   1.000
    O32     O    0.60843   0.01335   0.71744   1.000
    O33     O    0.45980   0.72977   0.48732   1.000
    O34     O    0.37319   0.78503   0.47011   1.000
    O35     O    0.43691   0.75538   0.68429   1.000
    O36     O    0.53199   0.69209   0.68879   1.000
    O37     O    0.40461   0.80790   0.70344   1.000
loop_
    _geom_bond_atom_site_label_1
    _geom_bond_atom_site_label_2
    _geom_bond_distance
    _geom_bond_site_symmetry_2
    _ccdc_geom_bond_type
    N6     O7        1.54811      .   S
    Zr2    O7        2.31717      .   S
    N6     O8        1.68495      .   S
    Zr2    O8        2.21073      .   S
    N6     O9        2.68738      .   S
    Zr0    O9        3.66020      .   S
    N6     O10       3.18555  1_556   S
    Zr3    O10       4.31930      .   S
    N6     O11       3.21480  1_556   S
    Zr1    O11       3.95645      .   S
    N6     O12       2.88088  1_455   S
    Zr4    O12       3.67617      .   S
    N6     O13       2.68373  1_455   S
    Zr4    O13       3.81086      .   S
    N14    O15       1.45743      .   S
    Zr5    O15       2.21852      .   S
    N14    O16       2.65932  1_545   S
    Zr1    O16       3.81233      .   S
    N14    O17       2.87566  1_545   S
    Zr1    O17       3.65747      .   S
    N14    O18       3.18627      .   S
    Zr0    O18       4.32415      .   S
    N14    O19       3.17669      .   S
    Zr4    O19       3.87922      .   S
    N14    O20       1.67054      .   S
    Zr5    O20       2.05556      .   S
    N14    O21       2.66426      .   S
    Zr3    O21       3.57413      .   S
    N22    O23       1.55533      .   S
    Zr5    O23       2.32694      .   S
    N22    O24       1.69471      .   S
    Zr5    O24       2.21873      .   S
    N22    O25       2.69645      .   S
    Zr3    O25       3.66959      .   S
    N22    O26       3.18947  1_554   S
    Zr0    O26       4.32319      .   S
    N22    O27       3.21621  1_554   S
    Zr4    O27       3.95570      .   S
    N22    O28       2.87549  1_655   S
    Zr1    O28       3.66877      .   S
    N22    O29       2.67719  1_655   S
    Zr1    O29       3.80419      .   S
    N30    O31       2.65281  1_565   S
    Zr4    O31       3.80577      .   S
    N30    O32       2.86986  1_565   S
    Zr4    O32       3.65060      .   S
    N30    O33       3.19146      .   S
    Zr3    O33       4.32895      .   S
    N30    O34       3.17988      .   S
    Zr1    O34       3.88041      .   S
    N30    O35       1.67881      .   S
    Zr2    O35       2.06278      .   S
    N30    O36       2.67145      .   S
    Zr0    O36       3.58179      .   S
    N30    O37       1.46346      .   S
    Zr2    O37       2.22727      .   S
