# CIF file generated by openbabel 2.4.90, see http://openbabel.sf.net
data_I
_chemical_name_common ''
_cell_length_a 13.563
_cell_length_b 13.894
_cell_length_c 16.09
_cell_angle_alpha 92.116
_cell_angle_beta 97.132
_cell_angle_gamma 91.853
_space_group_name_H-M_alt 'P 1'
_space_group_name_Hall 'P 1'
loop_
    _symmetry_equiv_pos_as_xyz
    x,y,z
loop_
    _atom_site_label
    _atom_site_type_symbol
    _atom_site_fract_x
    _atom_site_fract_y
    _atom_site_fract_z
    _atom_site_occupancy
    N0      N    0.13598   0.53565   0.83199   1.000
    N1      N    0.53631   0.13544   0.34452   1.000
    N2      N    0.86547   0.46410   0.16449   1.000
    N3      N    0.46372   0.86568   0.65208   1.000
    Zr4     Zr   0.56388   0.44526   0.73950   1.000
    O5      O    0.55206   0.35802   0.62436   1.000
    O6      O    0.64958   0.45324   0.86229   1.000
    O7      O    0.54793   0.56868   0.71414   1.000
    O8      O    0.43795   0.46118   0.76615   1.000
    Zr9     Zr   0.24885   0.75871   0.23945   1.000
    O10     O    0.33386   0.86882   0.27318   1.000
    O11     O    0.32023   0.87294   0.25928   1.000
    O12     O    0.13603   0.67303   0.21382   1.000
    O13     O    0.13292   0.68499   0.22764   1.000
    O14     O    0.31102   0.77187   0.35478   1.000
    O15     O    0.23361   0.69408   0.12673   1.000
    Zr16    Zr   0.75116   0.24124   0.75704   1.000
    O17     O    0.68899   0.22838   0.64174   1.000
    O18     O    0.76677   0.30583   0.86977   1.000
    O19     O    0.66615   0.13143   0.72335   1.000
    O20     O    0.67979   0.12730   0.73724   1.000
    O21     O    0.86433   0.32688   0.78268   1.000
    O22     O    0.86745   0.31491   0.76886   1.000
    Zr23    Zr   0.34516   0.66913   0.74563   1.000
    O24     O    0.39104   0.71226   0.71496   1.000
    O25     O    0.37488   0.73852   0.72454   1.000
    O26     O    0.27192   0.63477   0.76312   1.000
    O27     O    0.29674   0.61949   0.77604   1.000
    Zr28    Zr   0.43620   0.55471   0.25701   1.000
    O29     O    0.45212   0.43158   0.28239   1.000
    O30     O    0.56247   0.53873   0.23035   1.000
    O31     O    0.44800   0.64224   0.37216   1.000
    O32     O    0.35084   0.54668   0.13421   1.000
    Zr33    Zr   0.65466   0.33047   0.25081   1.000
    O34     O    0.60886   0.28777   0.28152   1.000
    O35     O    0.72830   0.36487   0.23334   1.000
    O36     O    0.70352   0.38018   0.22043   1.000
    O37     O    0.62500   0.26144   0.27195   1.000
loop_
    _geom_bond_atom_site_label_1
    _geom_bond_atom_site_label_2
    _geom_bond_distance
    _geom_bond_site_symmetry_2
    _ccdc_geom_bond_type
    Zr4    O5        2.16208      .   S
    N1     O5        5.34538      .   S
    Zr4    O6        2.16160      .   S
    N2     O6        5.34985  1_554   S
    Zr4    O7        1.79090      .   S
    N3     O7        4.43349      .   S
    Zr4    O8        1.83010      .   S
    N0     O8        4.49863      .   S
    Zr9    O10       1.90616      .   S
    N1     O10       4.56353  1_545   S
    Zr9    O11       1.82873      .   S
    N1     O11       4.65980  1_545   S
    Zr9    O12       1.90210      .   S
    N2     O12       4.57609  1_655   S
    Zr9    O13       1.83439      .   S
    N2     O13       4.66306  1_655   S
    Zr9    O14       1.94020      .   S
    N3     O14       5.07692      .   S
    Zr9    O15       1.97823      .   S
    N0     O15       5.15455  1_556   S
    Zr16   O17       1.93961      .   S
    N1     O17       5.07322      .   S
    Zr16   O18       1.97785      .   S
    N2     O18       5.15545  1_554   S
    Zr16   O19       1.90289      .   S
    N3     O19       4.55376  1_565   S
    Zr16   O20       1.82530      .   S
    N3     O20       4.65031  1_565   S
    Zr16   O21       1.90543      .   S
    N0     O21       4.58596  1_455   S
    Zr16   O22       1.83808      .   S
    N0     O22       4.67244  1_455   S
    Zr23   O24       1.03139      .   S
    N3     O24       2.60961      .   S
    Zr23   O25       1.11363      .   S
    N3     O25       2.50904      .   S
    Zr23   O26       1.15858      .   S
    N0     O26       2.64197      .   S
    Zr23   O27       1.10537      .   S
    N0     O27       2.70586      .   S
    Zr28   O29       1.78707      .   S
    N1     O29       4.42233      .   S
    Zr28   O30       1.83479      .   S
    N2     O30       4.51249      .   S
    Zr28   O31       2.16447      .   S
    N3     O31       5.35295      .   S
    Zr28   O32       2.15965      .   S
    N0     O32       5.34401  1_556   S
    Zr33   O34       1.02778      .   S
    N1     O34       2.59734      .   S
    Zr33   O35       1.16347      .   S
    N2     O35       2.65477      .   S
    Zr33   O36       1.10937      .   S
    N2     O36       2.71980      .   S
    Zr33   O37       1.10926      .   S
    N1     O37       2.49775      .   S
