# CIF file generated by openbabel 2.4.90, see http://openbabel.sf.net
data_I
_chemical_name_common ''
_cell_length_a 6.754
_cell_length_b 6.935
_cell_length_c 6.966
_cell_angle_alpha 90
_cell_angle_beta 90.011
_cell_angle_gamma 90.005
_space_group_name_H-M_alt 'P 1'
_space_group_name_Hall 'P 1'
loop_
    _symmetry_equiv_pos_as_xyz
    x,y,z
loop_
    _atom_site_label
    _atom_site_type_symbol
    _atom_site_fract_x
    _atom_site_fract_y
    _atom_site_fract_z
    _atom_site_occupancy
    Ni0     Ni   0.99707   0.50004   0.50013   1.000
    C1      C    0.99788   0.68799   0.31326   1.000
    C2      C    0.99790   0.31206   0.68695   1.000
    C3      C    0.99787   0.68800   0.68696   1.000
    C4      C    0.99791   0.31207   0.31326   1.000
    Fe5     Fe   0.00013   0.00002   0.00006   1.000
loop_
    _geom_bond_atom_site_label_1
    _geom_bond_atom_site_label_2
    _geom_bond_distance
    _geom_bond_site_symmetry_2
    _ccdc_geom_bond_type
    C1     Ni0       1.84215      .   S
    C4     Ni0       1.84223      .   S
    Ni0    C2        1.84206      .   S
    Ni0    C3        1.84200      .   S
