# CIF file generated by openbabel 2.4.90, see http://openbabel.sf.net
data_I
_chemical_name_common ''
_cell_length_a 6.754
_cell_length_b 6.935
_cell_length_c 6.966
_cell_angle_alpha 90
_cell_angle_beta 90.011
_cell_angle_gamma 90.005
_space_group_name_H-M_alt 'P 1'
_space_group_name_Hall 'P 1'
loop_
    _symmetry_equiv_pos_as_xyz
    x,y,z
loop_
    _atom_site_label
    _atom_site_type_symbol
    _atom_site_fract_x
    _atom_site_fract_y
    _atom_site_fract_z
    _atom_site_occupancy
    N0      N    0.99910   0.80657   0.19297   1.000
    N1      N    0.50007   0.00003   0.99933   1.000
    N2      N    0.99911   0.19342   0.80718   1.000
    N3      N    0.99915   0.19347   0.19299   1.000
    N4      N    0.99905   0.80663   0.80720   1.000
    Zr5     Zr   0.99773   0.50003   0.50011   1.000
    O6      O    0.99827   0.36156   0.63862   1.000
    O7      O    0.99824   0.63850   0.63863   1.000
    O8      O    0.99828   0.36157   0.36158   1.000
    O9      O    0.99826   0.63848   0.36158   1.000
    Zr10    Zr   0.00013   0.00002   0.00006   1.000
    O11     O    0.99974   0.07254   0.92773   1.000
    O12     O    0.99972   0.92749   0.92774   1.000
    O13     O    0.99976   0.07256   0.07241   1.000
    O14     O    0.16157   0.00003   0.99977   1.000
    O15     O    0.83865   0.00003   0.99979   1.000
    O16     O    0.99974   0.92748   0.07240   1.000
loop_
    _geom_bond_atom_site_label_1
    _geom_bond_atom_site_label_2
    _geom_bond_distance
    _geom_bond_site_symmetry_2
    _ccdc_geom_bond_type
    Zr5    O6        1.36130      .   S
    N2     O6        1.65481      .   S
    Zr5    O7        1.36131      .   S
    N4     O7        1.65482      .   S
    Zr5    O8        1.36132      .   S
    N3     O8        1.65483      .   S
    Zr5    O9        1.36131      .   S
    N0     O9        1.65481      .   S
    Zr10   O11       0.71194  1_454   S
    N2     O11       1.18656      .   S
    Zr10   O12       0.71187  1_444   S
    N4     O12       1.18644      .   S
    Zr10   O13       0.71212  1_455   S
    N3     O13       1.18687      .   S
    Zr10   O14       1.09042  1_554   S
    N1     O14       2.28621      .   S
    Zr10   O15       1.09062  1_454   S
    N1     O15       2.28676      .   S
    Zr10   O16       0.71207  1_445   S
    N0     O16       1.18679      .   S
