# CIF file generated by openbabel 2.4.90, see http://openbabel.sf.net
data_I
_chemical_name_common ''
_cell_length_a 6.754
_cell_length_b 6.935
_cell_length_c 6.966
_cell_angle_alpha 90
_cell_angle_beta 90.011
_cell_angle_gamma 90.005
_space_group_name_H-M_alt 'P 1'
_space_group_name_Hall 'P 1'
loop_
    _symmetry_equiv_pos_as_xyz
    x,y,z
loop_
    _atom_site_label
    _atom_site_type_symbol
    _atom_site_fract_x
    _atom_site_fract_y
    _atom_site_fract_z
    _atom_site_occupancy
    Zr0     Zr   0.00013   0.00002   0.00006   1.000
    Zr1     Zr   0.99707   0.50004   0.50013   1.000
    Zr2     Zr   0.99788   0.68799   0.31326   1.000
    Zr3     Zr   0.99790   0.31206   0.68695   1.000
    Zr4     Zr   0.99787   0.68800   0.68696   1.000
    Zr5     Zr   0.99791   0.31207   0.31326   1.000
    O6      O    0.99747   0.59402   0.40669   1.000
    O7      O    0.99749   0.40606   0.40669   1.000
    O8      O    0.99749   0.40605   0.59354   1.000
    O9      O    0.99747   0.59402   0.59354   1.000
    N10     N    0.99910   0.80657   0.19297   1.000
    O11     O    0.99880   0.77693   0.22304   1.000
    O12     O    0.99936   0.85493   0.14474   1.000
    N13     N    0.50007   0.00003   0.99933   1.000
    O14     O    0.32302   0.00004   0.99948   1.000
    O15     O    0.67717   0.00004   0.99952   1.000
    N16     N    0.99911   0.19342   0.80718   1.000
    O17     O    0.99881   0.22308   0.77712   1.000
    O18     O    0.99936   0.14507   0.85540   1.000
    N19     N    0.99915   0.19347   0.19299   1.000
    O20     O    0.99939   0.14510   0.14476   1.000
    O21     O    0.99884   0.22312   0.22306   1.000
    N22     N    0.99905   0.80663   0.80720   1.000
    O23     O    0.99932   0.85497   0.85541   1.000
    O24     O    0.99875   0.77697   0.77714   1.000
loop_
    _geom_bond_atom_site_label_1
    _geom_bond_atom_site_label_2
    _geom_bond_distance
    _geom_bond_site_symmetry_2
    _ccdc_geom_bond_type
    Zr2    O6        0.92108      .   S
    Zr1    O6        0.92108      .   S
    Zr5    O7        0.92112      .   S
    Zr1    O7        0.92112      .   S
    Zr1    O8        0.92103      .   S
    Zr3    O8        0.92103      .   S
    Zr1    O9        0.92100      .   S
    Zr4    O9        0.92100      .   S
    N10    O11       0.29352      .   S
    Zr2    O11       0.88055      .   S
    N10    O12       0.47471      .   S
    Zr0    O12       1.42414  1_445   S
    N13    O14       1.19579      .   S
    Zr0    O14       2.18084  1_554   S
    N13    O15       1.19614      .   S
    Zr0    O15       2.18123  1_454   S
    N16    O17       0.29351      .   S
    Zr3    O17       0.88054      .   S
    N16    O18       0.47462      .   S
    Zr0    O18       1.42387  1_454   S
    N19    O20       0.47475      .   S
    Zr0    O20       1.42425  1_455   S
    N19    O21       0.29352      .   S
    Zr5    O21       0.88056      .   S
    N22    O23       0.47458      .   S
    Zr0    O23       1.42373  1_444   S
    N22    O24       0.29352      .   S
    Zr4    O24       0.88055      .   S
