# CIF file generated by openbabel 2.4.90, see http://openbabel.sf.net
data_I
_chemical_name_common ''
_cell_length_a 20.365
_cell_length_b 17.894
_cell_length_c 19.845
_cell_angle_alpha 90.021
_cell_angle_beta 90.013
_cell_angle_gamma 89.977
_space_group_name_H-M_alt 'P 1'
_space_group_name_Hall 'P 1'
loop_
    _symmetry_equiv_pos_as_xyz
    x,y,z
loop_
    _atom_site_label
    _atom_site_type_symbol
    _atom_site_fract_x
    _atom_site_fract_y
    _atom_site_fract_z
    _atom_site_occupancy
    H0      H    0.06366   0.94767   0.68700   1.000
    H1      H    0.56360   0.94781   0.68790   1.000
    H2      H    0.39498   0.93966   0.51042   1.000
    H3      H    0.89513   0.93921   0.51016   1.000
    H4      H    0.08726   0.01268   0.58059   1.000
    H5      H    0.58725   0.01280   0.58078   1.000
    H6      H    0.37996   0.87885   0.62126   1.000
    H7      H    0.88016   0.87838   0.62100   1.000
    H8      H    0.06352   0.55210   0.81260   1.000
    H9      H    0.56348   0.55192   0.81180   1.000
    H10     H    0.39506   0.56051   0.98941   1.000
    H11     H    0.89480   0.56014   0.98996   1.000
    H12     H    0.08724   0.48729   0.91985   1.000
    H13     H    0.58721   0.48700   0.91896   1.000
    H14     H    0.37996   0.62124   0.87852   1.000
    H15     H    0.87974   0.62085   0.87906   1.000
    H16     H    0.18684   0.05246   0.18792   1.000
    H17     H    0.68648   0.05210   0.18786   1.000
    H18     H    0.35636   0.06103   0.00000   1.000
    H19     H    0.85506   0.06012   0.00000   1.000
    H20     H    0.16378   0.98763   0.08053   1.000
    H21     H    0.66275   0.98716   0.08068   1.000
    H22     H    0.37078   0.12166   0.12248   1.000
    H23     H    0.87013   0.12093   0.12129   1.000
    H24     H    0.18410   0.44855   0.31360   1.000
    H25     H    0.68658   0.44817   0.31197   1.000
    H26     H    0.35530   0.44057   0.48850   1.000
    H27     H    0.85505   0.43966   0.48960   1.000
    H28     H    0.16174   0.51306   0.42132   1.000
    H29     H    0.66290   0.51318   0.41913   1.000
    H30     H    0.36899   0.38027   0.37720   1.000
    H31     H    0.87010   0.37883   0.37872   1.000
    H32     H    0.43595   0.05283   0.31256   1.000
    H33     H    0.93653   0.05192   0.31202   1.000
    H34     H    0.10496   0.06025   0.48965   1.000
    H35     H    0.60506   0.06011   0.48900   1.000
    H36     H    0.41241   0.98775   0.41966   1.000
    H37     H    0.91286   0.98684   0.41910   1.000
    H38     H    0.12000   0.12114   0.37886   1.000
    H39     H    0.61993   0.12108   0.37880   1.000
    H40     H    0.43670   0.44851   0.18770   1.000
    H41     H    0.93645   0.44781   0.18826   1.000
    C42     C    0.22174   0.05115   0.14651   1.000
    H43     H    0.10508   0.44001   0.00000   1.000
    H44     H    0.60495   0.43938   0.00000   1.000
    H45     H    0.41299   0.51339   0.08055   1.000
    H46     H    0.91268   0.51280   0.08114   1.000
    H47     H    0.12019   0.37914   0.12168   1.000
    H48     H    0.62003   0.37870   0.12088   1.000
    H49     H    0.31608   0.94814   0.81298   1.000
    H50     H    0.81350   0.94788   0.81209   1.000
    H51     H    0.14638   0.94059   0.98934   1.000
    H52     H    0.64498   0.93962   0.98960   1.000
    H53     H    0.33916   0.01333   0.92022   1.000
    H54     H    0.83722   0.01276   0.91931   1.000
    C55     C    0.06559   0.05609   0.45279   1.000
    C56     C    0.56554   0.05620   0.45287   1.000
    C57     C    0.45934   0.01614   0.41425   1.000
    C58     C    0.95968   0.01549   0.41384   1.000
    H59     H    0.13197   0.87959   0.87846   1.000
    H60     H    0.62990   0.87889   0.87868   1.000
    H61     H    0.31609   0.55186   0.68700   1.000
    H62     H    0.81354   0.55202   0.68788   1.000
    H63     H    0.14490   0.55961   0.51287   1.000
    H64     H    0.64506   0.56055   0.51026   1.000
    H65     H    0.33852   0.48733   0.58009   1.000
    H66     H    0.83728   0.48719   0.58065   1.000
    H67     H    0.13117   0.61997   0.62415   1.000
    H68     H    0.62995   0.62121   0.62120   1.000
    C69     C    0.02899   0.94899   0.64608   1.000
    C70     C    0.52891   0.94922   0.64631   1.000
    C71     C    0.49392   0.98280   0.53201   1.000
    C72     C    0.99402   0.98248   0.53177   1.000
    C73     C    0.43438   0.94380   0.54726   1.000
    C74     C    0.93453   0.94338   0.54700   1.000
    C75     C    0.04044   0.98403   0.58588   1.000
    C76     C    0.54039   0.98423   0.58609   1.000
    C77     C    0.42418   0.90947   0.60804   1.000
    C78     C    0.92436   0.90904   0.60778   1.000
    C79     C    0.02882   0.55071   0.85423   1.000
    C80     C    0.52884   0.55062   0.85344   1.000
    C81     C    0.49398   0.51727   0.96780   1.000
    C82     C    0.99388   0.51724   0.96852   1.000
    C83     C    0.43444   0.55633   0.95257   1.000
    C84     C    0.93426   0.55610   0.95319   1.000
    C85     C    0.04035   0.51578   0.91448   1.000
    C86     C    0.54038   0.51565   0.91367   1.000
    C87     C    0.42419   0.59059   0.89176   1.000
    C88     C    0.92403   0.59035   0.89230   1.000
    O89     O    0.71145   0.87517   0.78364   1.000
    O90     O    0.21421   0.62414   0.71777   1.000
    O91     O    0.71148   0.62480   0.71630   1.000
    C92     C    0.72115   0.05069   0.14626   1.000
    C93     C    0.25731   0.01784   0.03235   1.000
    C94     C    0.75607   0.01713   0.03190   1.000
    C95     C    0.31676   0.05682   0.04801   1.000
    C96     C    0.81564   0.05607   0.04721   1.000
    C97     C    0.21058   0.01623   0.08617   1.000
    C98     C    0.70962   0.01570   0.08601   1.000
    C99     C    0.32664   0.09104   0.10893   1.000
    C100    C    0.82588   0.09037   0.10803   1.000
    C101    C    0.21937   0.44997   0.35469   1.000
    C102    C    0.72124   0.44949   0.35361   1.000
    C103    C    0.25579   0.48310   0.46862   1.000
    C104    C    0.75614   0.48293   0.46798   1.000
    C105    C    0.31532   0.44456   0.45231   1.000
    C106    C    0.81566   0.44384   0.45275   1.000
    C107    C    0.20860   0.48468   0.41521   1.000
    C108    C    0.70973   0.48451   0.41380   1.000
    C109    C    0.32481   0.41056   0.39124   1.000
    C110    C    0.82589   0.40952   0.39194   1.000
    C111    C    0.47075   0.05123   0.35406   1.000
    C112    C    0.97118   0.05055   0.35365   1.000
    C113    C    0.00608   0.01700   0.46797   1.000
    C114    C    0.50594   0.01737   0.46822   1.000
    C115    C    0.07579   0.09046   0.39204   1.000
    C116    C    0.57567   0.09058   0.39210   1.000
    C117    C    0.47130   0.44967   0.14606   1.000
    C118    C    0.97112   0.44925   0.14660   1.000
    C119    C    0.00600   0.48285   0.03237   1.000
    C120    C    0.50612   0.48286   0.03165   1.000
    C121    C    0.06563   0.44399   0.04764   1.000
    C122    C    0.56561   0.44370   0.04686   1.000
    C123    C    0.45977   0.48462   0.08581   1.000
    C124    C    0.95957   0.48427   0.08645   1.000
    C125    C    0.07589   0.40965   0.10841   1.000
    C126    C    0.57585   0.40945   0.10768   1.000
    C127    C    0.28115   0.94970   0.85435   1.000
    C128    C    0.77884   0.94924   0.85371   1.000
    C129    C    0.24556   0.98339   0.96842   1.000
    C130    C    0.74393   0.98270   0.96806   1.000
    C131    C    0.18604   0.94452   0.95280   1.000
    C132    C    0.68438   0.94373   0.95278   1.000
    C133    C    0.29231   0.98479   0.91462   1.000
    C134    C    0.79037   0.98419   0.91397   1.000
    C135    C    0.17616   0.91014   0.89197   1.000
    C136    C    0.67414   0.90948   0.89190   1.000
    C137    C    0.28083   0.55038   0.64670   1.000
    C138    C    0.77888   0.55071   0.64624   1.000
    C139    C    0.24443   0.51715   0.53278   1.000
    C140    C    0.74401   0.51735   0.53185   1.000
    C141    C    0.18488   0.55566   0.54907   1.000
    C142    C    0.68445   0.55637   0.54710   1.000
    C143    C    0.29163   0.51564   0.58600   1.000
    C144    C    0.79043   0.51578   0.58597   1.000
    C145    C    0.17536   0.58968   0.61012   1.000
    C146    C    0.67420   0.59060   0.60795   1.000
    N147    N    0.47147   0.91095   0.65736   1.000
    N148    N    0.97163   0.91062   0.65713   1.000
    N149    N    0.47144   0.58902   0.84242   1.000
    N150    N    0.97135   0.58887   0.84309   1.000
    N151    N    0.27908   0.08947   0.15796   1.000
    N152    N    0.77859   0.08895   0.15734   1.000
    N153    N    0.27676   0.41193   0.34267   1.000
    N154    N    0.77863   0.41107   0.34259   1.000
    N155    N    0.02856   0.08891   0.34265   1.000
    N156    N    0.52824   0.08934   0.34291   1.000
    N157    N    0.02859   0.41104   0.15771   1.000
    N158    N    0.52864   0.41116   0.15706   1.000
    N159    N    0.22378   0.91141   0.84299   1.000
    N160    N    0.72141   0.91096   0.84260   1.000
    N161    N    0.22340   0.58836   0.65868   1.000
    N162    N    0.72145   0.58904   0.65730   1.000
    O163    O    0.46152   0.87516   0.71632   1.000
    O164    O    0.96179   0.87477   0.71606   1.000
    O165    O    0.46147   0.62483   0.78347   1.000
    O166    O    0.96144   0.62466   0.78412   1.000
    O167    O    0.28864   0.12523   0.21702   1.000
    O168    O    0.78855   0.12479   0.21630   1.000
    O169    O    0.28588   0.37619   0.28350   1.000
    O170    O    0.78855   0.37518   0.28365   1.000
    O171    O    0.03848   0.12479   0.28374   1.000
    O172    O    0.53809   0.12519   0.28397   1.000
    O173    O    0.03856   0.37513   0.21660   1.000
    O174    O    0.53856   0.37536   0.21602   1.000
    O175    O    0.21421   0.87537   0.78409   1.000
loop_
    _geom_bond_atom_site_label_1
    _geom_bond_atom_site_label_2
    _geom_bond_distance
    _geom_bond_site_symmetry_2
    _ccdc_geom_bond_type
    H18    C95       1.25066      .   S
    H44    C122      1.23000      .   S
    H43    C121      1.24279      .   S
    H19    C96       1.23610      .   S
    C120   C122      1.43159      .   S
    C120   C123      1.43096      .   S
    C120   C81       1.43035  1_554   S
    C94    C96       1.43175      .   S
    C94    C98       1.43141      .   S
    C94    C130      1.43007  1_544   S
    C93    C95       1.43159      .   S
    C93    C97       1.43096      .   S
    C93    C129      1.43048  1_544   S
    C119   C121      1.43159      .   S
    C119   C124      1.43076  1_455   S
    C119   C82       1.43021  1_454   S
    C122   C126      1.36970      .   S
    C96    C100      1.36979      .   S
    C121   C125      1.36962      .   S
    C95    C99       1.36978      .   S
    H20    C97       1.08777  1_565   S
    H45    C123      1.08765      .   S
    H21    C98       1.08783  1_565   S
    H46    C124      1.08765      .   S
    C123   C117      1.36969      .   S
    C98    C92       1.36973      .   S
    C97    C42       1.36942      .   S
    C124   C118      1.36867      .   S
    C126   H48       1.08656      .   S
    C126   N158      1.37332      .   S
    C100   H23       1.08660      .   S
    C100   N152      1.37331      .   S
    C125   H47       1.08662      .   S
    C125   N157      1.37334      .   S
    C99    H22       1.08657      .   S
    C99    N151      1.37336      .   S
    C117   N158      1.37319      .   S
    C117   H40       1.08630      .   S
    C92    N152      1.37323      .   S
    C92    H17       1.08677      .   S
    C42    N151      1.37324      .   S
    C42    H16       1.08682      .   S
    C118   N157      1.37304  1_655   S
    C118   H41       1.08766      .   S
    N158   O174      1.34931      .   S
    N152   O168      1.34940      .   S
    N157   O173      1.34913      .   S
    N151   O167      1.34926      .   S
    O169   N153      1.34974      .   S
    O170   N154      1.34936      .   S
    O171   N155      1.34932      .   S
    O172   N156      1.34933      .   S
    H25    C102      1.08684      .   S
    H33    C112      1.08672      .   S
    H32    C111      1.08680      .   S
    H24    C101      1.08677      .   S
    N154   C102      1.37321      .   S
    N154   C110      1.37325      .   S
    N155   C112      1.37292  1_455   S
    N155   C115      1.37342      .   S
    N153   C101      1.37315      .   S
    N153   C109      1.37348      .   S
    N156   C111      1.37317      .   S
    N156   C116      1.37325      .   S
    C102   C108      1.36888      .   S
    C112   C58       1.36971      .   S
    C111   C57       1.36956      .   S
    C101   C107      1.36965      .   S
    H30    C109      1.08659      .   S
    H31    C110      1.08661      .   S
    H39    C116      1.08657      .   S
    H38    C115      1.08660      .   S
    C109   C105      1.36959      .   S
    C110   C106      1.36975      .   S
    C115   C55       1.36956      .   S
    C116   C56       1.36978      .   S
    C108   H29       1.08776      .   S
    C108   C104      1.43171      .   S
    C58    H37       1.08783  1_545   S
    C58    C113      1.43070  1_655   S
    C57    H36       1.08780  1_545   S
    C57    C114      1.43109      .   S
    C107   H28       1.08763      .   S
    C107   C103      1.43092      .   S
    C105   C103      1.43151      .   S
    C105   H26       1.08789      .   S
    C106   C104      1.43162      .   S
    C106   H27       1.08789      .   S
    C55    C113      1.43169      .   S
    C55    H34       1.08784      .   S
    C56    C114      1.43163      .   S
    C56    H35       1.08003      .   S
    C113   C72       1.43028  1_445   S
    C104   C140      1.43050      .   S
    C114   C71       1.43037  1_545   S
    C103   C139      1.43016      .   S
    H3     C74       1.08799      .   S
    H64    C142      1.08785      .   S
    H2     C73       1.08792      .   S
    H63    C141      1.08792      .   S
    C72    C74       1.43168      .   S
    C72    C75       1.43078  1_655   S
    C140   C142      1.43160      .   S
    C140   C144      1.43092      .   S
    C71    C73       1.43169      .   S
    C71    C76       1.43101      .   S
    C139   C141      1.43156      .   S
    C139   C143      1.42816      .   S
    C74    C78       1.36971      .   S
    C142   C146      1.36983      .   S
    C73    C77       1.36970      .   S
    C141   C145      1.36950      .   S
    H65    C143      1.08723      .   S
    H4     C75       1.08779  1_545   S
    H66    C144      1.08768      .   S
    H5     C76       1.08783  1_545   S
    C75    C69       1.36949      .   S
    C144   C138      1.36966      .   S
    C143   C137      1.37305      .   S
    C76    C70       1.36977      .   S
    C78    H7        1.08657      .   S
    C78    N148      1.37336      .   S
    C146   H68       1.08660      .   S
    C146   N162      1.37318      .   S
    C77    H6        1.08656      .   S
    C77    N147      1.37319      .   S
    C145   H67       1.08668      .   S
    C145   N161      1.37328      .   S
    C69    N148      1.37285  1_455   S
    C69    H0        1.07629      .   S
    C138   N162      1.37321      .   S
    C138   H62       1.08683      .   S
    C70    N147      1.37328      .   S
    C70    H1        1.08668      .   S
    C137   N161      1.37316      .   S
    C137   H61       1.07505      .   S
    N148   O164      1.34916      .   S
    N162   O91       1.34947      .   S
    N147   O163      1.34942      .   S
    N161   O90       1.34888      .   S
    O165   N149      1.34931      .   S
    O89    N160      1.34900      .   S
    O175   N159      1.34896      .   S
    O166   N150      1.34932      .   S
    H9     C80       1.08689      .   S
    H50    C128      1.08689      .   S
    H8     C79       1.08754      .   S
    H49    C127      1.08683      .   S
    N149   C80       1.37322      .   S
    N149   C87       1.37327      .   S
    N160   C128      1.37330      .   S
    N160   C136      1.37298      .   S
    N159   C127      1.37320      .   S
    N159   C135      1.37333      .   S
    N150   C79       1.37281  1_655   S
    N150   C88       1.37237      .   S
    C80    C86       1.36962      .   S
    C128   C134      1.36962      .   S
    C79    C85       1.36955      .   S
    C127   C133      1.36971      .   S
    H59    C135      1.08660      .   S
    H14    C87       1.08659      .   S
    H60    C136      1.08641      .   S
    H15    C88       1.08628      .   S
    C87    C83       1.36973      .   S
    C136   C132      1.37055      .   S
    C135   C131      1.36959      .   S
    C88    C84       1.37094      .   S
    C86    H13       1.08766      .   S
    C86    C81       1.43099      .   S
    C134   H54       1.08783  1_565   S
    C134   C130      1.43099      .   S
    C85    H12       1.08763      .   S
    C85    C82       1.43061  1_455   S
    C133   H53       1.08782  1_565   S
    C133   C129      1.43096      .   S
    C83    C81       1.43160      .   S
    C83    H10       1.08795      .   S
    C132   C130      1.43162      .   S
    C132   H52       1.08792      .   S
    C131   C129      1.43152      .   S
    C131   H51       1.08785      .   S
    C84    C82       1.43160      .   S
    C84    H11       1.08792      .   S
