# CIF file generated by openbabel 2.4.90, see http://openbabel.sf.net
data_I
_chemical_name_common ''
_cell_length_a 20.365
_cell_length_b 17.894
_cell_length_c 19.845
_cell_angle_alpha 90.021
_cell_angle_beta 90.013
_cell_angle_gamma 89.977
_space_group_name_H-M_alt 'P 1'
_space_group_name_Hall 'P 1'
loop_
    _symmetry_equiv_pos_as_xyz
    x,y,z
loop_
    _atom_site_label
    _atom_site_type_symbol
    _atom_site_fract_x
    _atom_site_fract_y
    _atom_site_fract_z
    _atom_site_occupancy
    La0     La   0.98303   0.74962   0.75011   1.000
    La1     La   0.26649   0.25070   0.24997   1.000
    La2     La   0.76700   0.25000   0.24995   1.000
    La3     La   0.01690   0.24991   0.25006   1.000
    La4     La   0.51703   0.25038   0.25001   1.000
    La5     La   0.23414   0.74978   0.75075   1.000
    La6     La   0.73314   0.74998   0.74999   1.000
    La7     La   0.48324   0.75001   0.74997   1.000
    C8      C    0.61580   0.71850   0.87051   1.000
    C9      C    0.11559   0.78004   0.63040   1.000
    C10     C    0.61574   0.78143   0.62947   1.000
    C11     C    0.11573   0.71880   0.87063   1.000
    O12     O    0.32348   0.75223   0.83175   1.000
    O13     O    0.82265   0.75313   0.83090   1.000
    O14     O    0.42531   0.79396   0.85277   1.000
    O15     O    0.92477   0.79368   0.85266   1.000
    O16     O    0.32297   0.74705   0.66912   1.000
    C17     C    0.13415   0.21865   0.12936   1.000
    C18     C    0.63433   0.21864   0.12948   1.000
    C19     C    0.13410   0.28130   0.37068   1.000
    C20     C    0.63457   0.28146   0.37040   1.000
    C21     C    0.38456   0.22094   0.37049   1.000
    C22     C    0.88436   0.21852   0.37049   1.000
    C23     C    0.38436   0.28144   0.12955   1.000
    C24     C    0.88436   0.28139   0.12947   1.000
    C25     C    0.36645   0.78112   0.87108   1.000
    C26     C    0.86569   0.78136   0.87056   1.000
    C27     C    0.36592   0.71870   0.62944   1.000
    C28     C    0.86564   0.71859   0.62945   1.000
    O29     O    0.07251   0.75041   0.66920   1.000
    O30     O    0.57269   0.75317   0.66900   1.000
    O31     O    0.17425   0.79326   0.64932   1.000
    O32     O    0.67482   0.79371   0.64741   1.000
    O33     O    0.07260   0.74697   0.83104   1.000
    O34     O    0.57271   0.74677   0.83093   1.000
    O35     O    0.17482   0.70654   0.85269   1.000
    O36     O    0.67489   0.70625   0.85250   1.000
    O37     O    0.17716   0.24696   0.16900   1.000
    O38     O    0.67740   0.24685   0.16911   1.000
    O39     O    0.07512   0.20621   0.14730   1.000
    O40     O    0.57527   0.20630   0.14741   1.000
    O41     O    0.17712   0.25294   0.33109   1.000
    O42     O    0.67752   0.25308   0.33082   1.000
    O43     O    0.07505   0.29375   0.35268   1.000
    O44     O    0.57548   0.29387   0.35262   1.000
    O45     O    0.42750   0.24955   0.33098   1.000
    O46     O    0.92738   0.24680   0.33089   1.000
    O47     O    0.32541   0.20893   0.35264   1.000
    O48     O    0.82527   0.20624   0.35256   1.000
    O49     O    0.42744   0.25313   0.16910   1.000
    O50     O    0.92740   0.25317   0.16910   1.000
    O51     O    0.32528   0.29375   0.14751   1.000
    O52     O    0.82526   0.29371   0.14735   1.000
    O53     O    0.82259   0.74683   0.66909   1.000
    O54     O    0.42500   0.70623   0.64731   1.000
    O55     O    0.92470   0.70617   0.64739   1.000
loop_
    _geom_bond_atom_site_label_1
    _geom_bond_atom_site_label_2
    _geom_bond_distance
    _geom_bond_site_symmetry_2
    _ccdc_geom_bond_type
    C17    O39       1.27371      .   S
    C17    O37       1.28155      .   S
    C24    O52       1.27391      .   S
    C24    O50       1.28123      .   S
    C18    O40       1.27384      .   S
    C18    O38       1.28156      .   S
    C23    O51       1.27398      .   S
    C23    O49       1.28151      .   S
    O39    La3       2.48493      .   S
    O52    La2       2.48354      .   S
    O40    La4       2.48470      .   S
    O51    La1       2.48278      .   S
    O37    La1       2.42786      .   S
    O50    La3       2.43002  1_655   S
    O49    La4       2.43058      .   S
    O38    La2       2.43001      .   S
    La2    O42       2.42905      .   S
    La2    O48       2.48339      .   S
    La1    O41       2.43035      .   S
    La1    O47       2.47975      .   S
    La4    O45       2.43063      .   S
    La4    O44       2.48344      .   S
    La3    O46       2.42913  1_455   S
    La3    O43       2.48275      .   S
    O42    C20       1.28045      .   S
    O46    C22       1.28156      .   S
    O45    C21       1.28156      .   S
    O41    C19       1.28144      .   S
    O48    C22       1.27389      .   S
    O44    C20       1.27337      .   S
    O47    C21       1.27384      .   S
    O43    C19       1.27397      .   S
    C27    O54       1.27373      .   S
    C27    O16       1.28150      .   S
    C28    O55       1.27371      .   S
    C28    O53       1.28160      .   S
    C10    O32       1.27379      .   S
    C10    O30       1.28091      .   S
    C9     O31       1.27442      .   S
    C9     O29       1.28249      .   S
    O54    La7       2.48385      .   S
    O55    La0       2.48390      .   S
    O32    La6       2.48329      .   S
    O31    La5       2.47864      .   S
    O30    La7       2.43006      .   S
    O53    La6       2.42897      .   S
    O16    La5       2.42916      .   S
    O29    La0       2.42898  1_455   S
    La7    O34       2.42978      .   S
    La7    O14       2.48422      .   S
    La6    O13       2.42958      .   S
    La6    O36       2.48221      .   S
    La0    O33       2.43058  1_655   S
    La0    O15       2.48401      .   S
    La5    O12       2.42797      .   S
    La5    O35       2.48059      .   S
    O13    C26       1.28168      .   S
    O34    C8        1.28157      .   S
    O33    C11       1.28147      .   S
    O12    C25       1.28144      .   S
    O36    C8        1.27419      .   S
    O15    C26       1.27381      .   S
    O35    C11       1.27400      .   S
    O14    C25       1.27348      .   S
