# CIF file generated by openbabel 2.4.90, see http://openbabel.sf.net
data_I
_chemical_name_common ''
_cell_length_a 20.365
_cell_length_b 17.894
_cell_length_c 19.845
_cell_angle_alpha 90.021
_cell_angle_beta 90.013
_cell_angle_gamma 89.977
_space_group_name_H-M_alt 'P 1'
_space_group_name_Hall 'P 1'
loop_
    _symmetry_equiv_pos_as_xyz
    x,y,z
loop_
    _atom_site_label
    _atom_site_type_symbol
    _atom_site_fract_x
    _atom_site_fract_y
    _atom_site_fract_z
    _atom_site_occupancy
    Zr0     Zr   0.48324   0.75001   0.74997   1.000
    Zr1     Zr   0.98303   0.74962   0.75011   1.000
    Zr2     Zr   0.26649   0.25070   0.24997   1.000
    Zr3     Zr   0.76700   0.25000   0.24995   1.000
    Zr4     Zr   0.01690   0.24991   0.25006   1.000
    Zr5     Zr   0.51703   0.25038   0.25001   1.000
    Zr6     Zr   0.23414   0.74978   0.75075   1.000
    Zr7     Zr   0.73314   0.74998   0.74999   1.000
    N8      N    0.50004   0.50008   0.99928   1.000
    O9      O    0.48620   0.59375   0.88300   1.000
    O10     O    0.51392   0.40648   0.11615   1.000
    N11     N    0.25009   0.50015   0.50064   1.000
    O12     O    0.26314   0.40680   0.38369   1.000
    O13     O    0.23713   0.59355   0.61745   1.000
    N14     N    0.49989   0.00012   0.50010   1.000
    O15     O    0.51372   0.09395   0.38354   1.000
    O16     O    0.48613   0.90635   0.61662   1.000
    N17     N    0.75000   0.99994   0.99951   1.000
    O18     O    0.73615   0.90626   0.88316   1.000
    O19     O    0.76389   0.09367   0.11632   1.000
    N20     N    0.99996   0.50000   0.99992   1.000
    O21     O    0.01385   0.40626   0.11663   1.000
    O22     O    0.98610   0.59357   0.88352   1.000
    N23     N    0.00008   0.99976   0.49985   1.000
    O24     O    0.01388   0.09355   0.38338   1.000
    O25     O    0.98624   0.90597   0.61647   1.000
    N26     N    0.25142   0.00053   0.99991   1.000
    O27     O    0.23780   0.90655   0.88367   1.000
    O28     O    0.26449   0.09425   0.11670   1.000
    N29     N    0.75005   0.50009   0.49993   1.000
    O30     O    0.76392   0.40634   0.38336   1.000
    O31     O    0.73618   0.59374   0.61654   1.000
    C32     C    0.62900   0.22393   0.14867   1.000
    O33     O    0.67560   0.23618   0.17910   1.000
    O34     O    0.58758   0.22614   0.17369   1.000
    C35     C    0.12881   0.22394   0.14855   1.000
    O36     O    0.17532   0.23638   0.17902   1.000
    O37     O    0.08741   0.22600   0.17362   1.000
    C38     C    0.37903   0.27611   0.14872   1.000
    O39     O    0.42563   0.26393   0.17914   1.000
    O40     O    0.33745   0.27417   0.17373   1.000
    C41     C    0.87901   0.27609   0.14864   1.000
    O42     O    0.92558   0.26381   0.17911   1.000
    O43     O    0.83757   0.27397   0.17365   1.000
    C44     C    0.12876   0.27600   0.35148   1.000
    O45     O    0.17528   0.26391   0.32101   1.000
    O46     O    0.08737   0.27391   0.32643   1.000
    C47     C    0.62919   0.27614   0.35128   1.000
    O48     O    0.58772   0.27413   0.32630   1.000
    O49     O    0.67573   0.26384   0.32083   1.000
    C50     C    0.37916   0.22647   0.35137   1.000
    O51     O    0.33756   0.22814   0.32634   1.000
    O52     O    0.42571   0.23822   0.32093   1.000
    C53     C    0.87900   0.22386   0.35131   1.000
    O54     O    0.92557   0.23610   0.32089   1.000
    O55     O    0.83757   0.22599   0.32628   1.000
    C56     C    0.12078   0.77457   0.64964   1.000
    O57     O    0.07428   0.76229   0.67965   1.000
    O58     O    0.16249   0.77305   0.67484   1.000
    C59     C    0.62108   0.77611   0.64863   1.000
    O60     O    0.57452   0.76385   0.67906   1.000
    O61     O    0.66253   0.77398   0.67366   1.000
    C62     C    0.37175   0.77577   0.85187   1.000
    O63     O    0.41301   0.77388   0.82662   1.000
    O64     O    0.32528   0.76339   0.82156   1.000
    C65     C    0.62113   0.72384   0.85131   1.000
    O66     O    0.66258   0.72598   0.82628   1.000
    O67     O    0.57455   0.73611   0.82088   1.000
    C68     C    0.12105   0.72410   0.85145   1.000
    O69     O    0.16276   0.72613   0.82659   1.000
    O70     O    0.07443   0.73620   0.82101   1.000
    C71     C    0.37130   0.72399   0.64862   1.000
    O72     O    0.41271   0.72606   0.67363   1.000
    O73     O    0.32493   0.73620   0.67928   1.000
    C74     C    0.87097   0.72386   0.64864   1.000
    O75     O    0.91242   0.72588   0.67370   1.000
    O76     O    0.82442   0.73614   0.67909   1.000
    C77     C    0.87104   0.77606   0.85137   1.000
    O78     O    0.91247   0.77385   0.82638   1.000
    O79     O    0.82447   0.76381   0.82091   1.000
loop_
    _geom_bond_atom_site_label_1
    _geom_bond_atom_site_label_2
    _geom_bond_distance
    _geom_bond_site_symmetry_2
    _ccdc_geom_bond_type
    N8     O9        2.86632      .   S
    Zr0    O9        3.84663      .   S
    N8     O10       2.87515  1_556   S
    Zr5    O10       3.85588      .   S
    N11    O12       2.87136      .   S
    Zr2    O12       3.85266      .   S
    N11    O13       2.86948      .   S
    Zr6    O13       3.84848      .   S
    N14    O15       2.87266      .   S
    Zr5    O15       3.85592      .   S
    N14    O16       2.87129  1_545   S
    Zr0    O16       3.85208      .   S
    N17    O18       2.86671      .   S
    Zr7    O18       3.84741      .   S
    N17    O19       2.87463  1_566   S
    Zr3    O19       3.85454      .   S
    N20    O21       2.87396  1_656   S
    Zr4    O21       3.85339      .   S
    N20    O22       2.86729      .   S
    Zr1    O22       3.84906      .   S
    N23    O24       2.87096  1_565   S
    Zr4    O24       3.85181      .   S
    N23    O25       2.87313  1_455   S
    Zr1    O25       3.85638      .   S
    N26    O27       2.86774  1_545   S
    Zr6    O27       3.85064      .   S
    N26    O28       2.87267  1_556   S
    Zr2    O28       3.85070      .   S
    N29    O30       2.87087      .   S
    Zr3    O30       3.85154      .   S
    N29    O31       2.87055      .   S
    Zr7    O31       3.85078      .   S
    C32    O33       1.14594      .   S
    Zr3    O33       2.34558      .   S
    C32    O34       0.97981      .   S
    Zr5    O34       2.13221      .   S
    C35    O36       1.14542      .   S
    Zr2    O36       2.34402      .   S
    C35    O37       0.97970      .   S
    Zr4    O37       2.13223      .   S
    C38    O39       1.14557      .   S
    Zr5    O39       2.34524      .   S
    C38    O40       0.98208      .   S
    Zr2    O40       2.13448      .   S
    C41    O42       1.14588      .   S
    Zr4    O42       2.34553  1_455   S
    C41    O43       0.97982      .   S
    Zr3    O43       2.13172      .   S
    C44    O45       1.14466      .   S
    Zr2    O45       2.34389      .   S
    C44    O46       0.97931      .   S
    Zr4    O46       2.13072      .   S
    C47    O48       0.97984      .   S
    Zr5    O48       2.13174      .   S
    C47    O49       1.14525      .   S
    Zr3    O49       2.34429      .   S
    C50    O51       0.98250      .   S
    Zr2    O51       2.13381      .   S
    C50    O52       1.14382      .   S
    Zr5    O52       2.34275      .   S
    C53    O54       1.14559      .   S
    Zr4    O54       2.34473  1_455   S
    C53    O55       0.97977      .   S
    Zr3    O55       2.13160      .   S
    C56    O57       1.14035      .   S
    Zr1    O57       2.33695  1_655   S
    C56    O58       0.98588      .   S
    Zr6    O58       2.13794      .   S
    C59    O60       1.14557      .   S
    Zr0    O60       2.34512      .   S
    C59    O61       0.98014      .   S
    Zr7    O61       2.13206      .   S
    C62    O63       0.97901      .   S
    Zr0    O63       2.13108      .   S
    C62    O64       1.14292      .   S
    Zr6    O64       2.34049      .   S
    C65    O66       0.98017      .   S
    Zr7    O66       2.13164      .   S
    C65    O67       1.14564      .   S
    Zr0    O67       2.34509      .   S
    C68    O69       0.98322      .   S
    Zr6    O69       2.13509      .   S
    C68    O70       1.14570      .   S
    Zr1    O70       2.34542  1_655   S
    C71    O72       0.97910      .   S
    Zr0    O72       2.13092      .   S
    C71    O73       1.14440      .   S
    Zr6    O73       2.34303      .   S
    C74    O75       0.98016      .   S
    Zr1    O75       2.13238      .   S
    C74    O76       1.14549      .   S
    Zr7    O76       2.34453      .   S
    C77    O78       0.97961      .   S
    Zr1    O78       2.13165      .   S
    C77    O79       1.14579      .   S
    Zr7    O79       2.34518      .   S
