# CIF file generated by openbabel 2.4.90, see http://openbabel.sf.net
data_I
_chemical_name_common ''
_cell_length_a 20.365
_cell_length_b 17.894
_cell_length_c 19.845
_cell_angle_alpha 90.021
_cell_angle_beta 90.013
_cell_angle_gamma 89.977
_space_group_name_H-M_alt 'P 1'
_space_group_name_Hall 'P 1'
loop_
    _symmetry_equiv_pos_as_xyz
    x,y,z
loop_
    _atom_site_label
    _atom_site_type_symbol
    _atom_site_fract_x
    _atom_site_fract_y
    _atom_site_fract_z
    _atom_site_occupancy
    Zr0     Zr   0.48324   0.75001   0.74997   1.000
    Zr1     Zr   0.98303   0.74962   0.75011   1.000
    Zr2     Zr   0.26649   0.25070   0.24997   1.000
    Zr3     Zr   0.76700   0.25000   0.24995   1.000
    Zr4     Zr   0.01690   0.24991   0.25006   1.000
    Zr5     Zr   0.51703   0.25038   0.25001   1.000
    Zr6     Zr   0.23414   0.74978   0.75075   1.000
    Zr7     Zr   0.73314   0.74998   0.74999   1.000
    N8      N    0.57528   0.82089   0.48208   1.000
    N9      N    0.17498   0.17908   0.98210   1.000
    N10     N    0.50004   0.50008   0.99928   1.000
    O11     O    0.48620   0.59375   0.88300   1.000
    O12     O    0.51392   0.40648   0.11615   1.000
    N13     N    0.25009   0.50015   0.50064   1.000
    O14     O    0.26314   0.40680   0.38369   1.000
    O15     O    0.23713   0.59355   0.61745   1.000
    N16     N    0.82510   0.67943   0.48199   1.000
    N17     N    0.07603   0.82056   0.48307   1.000
    N18     N    0.49989   0.00012   0.50010   1.000
    O19     O    0.51372   0.09395   0.38354   1.000
    O20     O    0.48613   0.90635   0.61662   1.000
    N21     N    0.75000   0.99994   0.99951   1.000
    O22     O    0.73615   0.90626   0.88316   1.000
    O23     O    0.76389   0.09367   0.11632   1.000
    N24     N    0.17467   0.32104   0.51799   1.000
    N25     N    0.92491   0.17901   0.51782   1.000
    N26     N    0.99996   0.50000   0.99992   1.000
    O27     O    0.01385   0.40626   0.11663   1.000
    O28     O    0.98610   0.59357   0.88352   1.000
    N29     N    0.00008   0.99976   0.49985   1.000
    O30     O    0.01388   0.09355   0.38338   1.000
    O31     O    0.98624   0.90597   0.61647   1.000
    N32     N    0.67538   0.32079   0.51782   1.000
    N33     N    0.42545   0.18001   0.51742   1.000
    N34     N    0.07544   0.67925   0.01801   1.000
    N35     N    0.25142   0.00053   0.99991   1.000
    O36     O    0.23780   0.90655   0.88367   1.000
    O37     O    0.26449   0.09425   0.11670   1.000
    N38     N    0.57546   0.67897   0.01783   1.000
    N39     N    0.75005   0.50009   0.49993   1.000
    O40     O    0.76392   0.40634   0.38336   1.000
    O41     O    0.73618   0.59374   0.61654   1.000
    N42     N    0.92497   0.32084   0.98214   1.000
    N43     N    0.67485   0.17924   0.98208   1.000
    N44     N    0.32496   0.67909   0.48222   1.000
    N45     N    0.32602   0.82110   0.01835   1.000
    N46     N    0.42469   0.32085   0.98215   1.000
    N47     N    0.82515   0.82062   0.01797   1.000
    C48     C    0.62900   0.22393   0.14867   1.000
    O49     O    0.64421   0.20915   0.09338   1.000
    O50     O    0.67560   0.23618   0.17910   1.000
    O51     O    0.58758   0.22614   0.17369   1.000
    C52     C    0.12881   0.22394   0.14855   1.000
    O53     O    0.14411   0.20911   0.09331   1.000
    O54     O    0.17532   0.23638   0.17902   1.000
    O55     O    0.08741   0.22600   0.17362   1.000
    C56     C    0.37903   0.27611   0.14872   1.000
    O57     O    0.42563   0.26393   0.17914   1.000
    O58     O    0.39417   0.29091   0.09344   1.000
    O59     O    0.33745   0.27417   0.17373   1.000
    C60     C    0.87901   0.27609   0.14864   1.000
    O61     O    0.92558   0.26381   0.17911   1.000
    O62     O    0.83757   0.27397   0.17365   1.000
    O63     O    0.89425   0.29089   0.09339   1.000
    C64     C    0.12876   0.27600   0.35148   1.000
    O65     O    0.14399   0.29089   0.40675   1.000
    O66     O    0.17528   0.26391   0.32101   1.000
    O67     O    0.08737   0.27391   0.32643   1.000
    C68     C    0.62919   0.27614   0.35128   1.000
    O69     O    0.64451   0.29091   0.40654   1.000
    O70     O    0.58772   0.27413   0.32630   1.000
    O71     O    0.67573   0.26384   0.32083   1.000
    C72     C    0.37916   0.22647   0.35137   1.000
    O73     O    0.33756   0.22814   0.32634   1.000
    O74     O    0.42571   0.23822   0.32093   1.000
    O75     O    0.39451   0.21110   0.40648   1.000
    C76     C    0.87900   0.22386   0.35131   1.000
    O77     O    0.92557   0.23610   0.32089   1.000
    O78     O    0.89423   0.20901   0.40657   1.000
    O79     O    0.83757   0.22599   0.32628   1.000
    C80     C    0.12078   0.77457   0.64964   1.000
    O81     O    0.10595   0.78979   0.59435   1.000
    O82     O    0.07428   0.76229   0.67965   1.000
    O83     O    0.16249   0.77305   0.67484   1.000
    C84     C    0.62108   0.77611   0.64863   1.000
    O85     O    0.60589   0.79092   0.59336   1.000
    O86     O    0.57452   0.76385   0.67906   1.000
    O87     O    0.66253   0.77398   0.67366   1.000
    C88     C    0.37175   0.77577   0.85187   1.000
    O89     O    0.41301   0.77388   0.82662   1.000
    O90     O    0.32528   0.76339   0.82156   1.000
    O91     O    0.35659   0.79076   0.90713   1.000
    C92     C    0.62113   0.72384   0.85131   1.000
    O93     O    0.60598   0.70899   0.90658   1.000
    O94     O    0.66258   0.72598   0.82628   1.000
    O95     O    0.57455   0.73611   0.82088   1.000
    C96     C    0.12105   0.72410   0.85145   1.000
    O97     O    0.10592   0.70927   0.90673   1.000
    O98     O    0.16276   0.72613   0.82659   1.000
    O99     O    0.07443   0.73620   0.82101   1.000
    C100    C    0.37130   0.72399   0.64862   1.000
    O101    O    0.35594   0.70914   0.59339   1.000
    O102    O    0.41271   0.72606   0.67363   1.000
    O103    O    0.32493   0.73620   0.67928   1.000
    C104    C    0.87097   0.72386   0.64864   1.000
    O105    O    0.85576   0.70916   0.59334   1.000
    O106    O    0.91242   0.72588   0.67370   1.000
    O107    O    0.82442   0.73614   0.67909   1.000
    C108    C    0.87104   0.77606   0.85137   1.000
    O109    O    0.91247   0.77385   0.82638   1.000
    O110    O    0.85582   0.79080   0.90666   1.000
    O111    O    0.82447   0.76381   0.82091   1.000
loop_
    _geom_bond_atom_site_label_1
    _geom_bond_atom_site_label_2
    _geom_bond_distance
    _geom_bond_site_symmetry_2
    _ccdc_geom_bond_type
    N10    O11       2.86632      .   S
    Zr0    O11       3.84663      .   S
    N10    O12       2.87515  1_556   S
    Zr5    O12       3.85588      .   S
    N13    O14       2.87136      .   S
    Zr2    O14       3.85266      .   S
    N13    O15       2.86948      .   S
    Zr6    O15       3.84848      .   S
    N18    O19       2.87266      .   S
    Zr5    O19       3.85592      .   S
    N18    O20       2.87129  1_545   S
    Zr0    O20       3.85208      .   S
    N21    O22       2.86671      .   S
    Zr7    O22       3.84741      .   S
    N21    O23       2.87463  1_566   S
    Zr3    O23       3.85454      .   S
    N26    O27       2.87396  1_656   S
    Zr4    O27       3.85339      .   S
    N26    O28       2.86729      .   S
    Zr1    O28       3.84906      .   S
    N29    O30       2.87096  1_565   S
    Zr4    O30       3.85181      .   S
    N29    O31       2.87313  1_455   S
    Zr1    O31       3.85638      .   S
    N35    O36       2.86774  1_545   S
    Zr6    O36       3.85064      .   S
    N35    O37       2.87267  1_556   S
    Zr2    O37       3.85070      .   S
    N39    O40       2.87087      .   S
    Zr3    O40       3.85154      .   S
    N39    O41       2.87055      .   S
    Zr7    O41       3.85078      .   S
    C48    O49       1.17024      .   S
    N43    O49       2.35678  1_556   S
    C48    O50       1.14594      .   S
    Zr3    O50       2.34558      .   S
    C48    O51       0.97981      .   S
    Zr5    O51       2.13221      .   S
    C52    O53       1.17024      .   S
    N9     O53       2.35671  1_556   S
    C52    O54       1.14542      .   S
    Zr2    O54       2.34402      .   S
    C52    O55       0.97970      .   S
    Zr4    O55       2.13223      .   S
    C56    O57       1.14557      .   S
    Zr5    O57       2.34524      .   S
    C56    O58       1.17011      .   S
    N46    O58       2.35648  1_556   S
    C56    O59       0.98208      .   S
    Zr2    O59       2.13448      .   S
    C60    O61       1.14588      .   S
    Zr4    O61       2.34553  1_455   S
    C60    O62       0.97982      .   S
    Zr3    O62       2.13172      .   S
    C60    O63       1.17016      .   S
    N42    O63       2.35669  1_556   S
    C64    O65       1.17030      .   S
    N24    O65       2.35671      .   S
    C64    O66       1.14466      .   S
    Zr2    O66       2.34389      .   S
    C64    O67       0.97931      .   S
    Zr4    O67       2.13072      .   S
    C68    O69       1.17034      .   S
    N32    O69       2.35716      .   S
    C68    O70       0.97984      .   S
    Zr5    O70       2.13174      .   S
    C68    O71       1.14525      .   S
    Zr3    O71       2.34429      .   S
    C72    O73       0.98250      .   S
    Zr2    O73       2.13381      .   S
    C72    O74       1.14382      .   S
    Zr5    O74       2.34275      .   S
    C72    O75       1.17022      .   S
    N33    O75       2.35665      .   S
    C76    O77       1.14559      .   S
    Zr4    O77       2.34473  1_455   S
    C76    O78       1.17016      .   S
    N25    O78       2.35645      .   S
    C76    O79       0.97977      .   S
    Zr3    O79       2.13160      .   S
    C80    O81       1.17011      .   S
    N17    O81       2.35616      .   S
    C80    O82       1.14035      .   S
    Zr1    O82       2.33695  1_655   S
    C80    O83       0.98588      .   S
    Zr6    O83       2.13794      .   S
    C84    O85       1.17000      .   S
    N8     O85       2.35646      .   S
    C84    O86       1.14557      .   S
    Zr0    O86       2.34512      .   S
    C84    O87       0.98014      .   S
    Zr7    O87       2.13206      .   S
    C88    O89       0.97901      .   S
    Zr0    O89       2.13108      .   S
    C88    O90       1.14292      .   S
    Zr6    O90       2.34049      .   S
    C88    O91       1.17030      .   S
    N45    O91       2.35659  1_554   S
    C92    O93       1.17007      .   S
    N38    O93       2.35614  1_554   S
    C92    O94       0.98017      .   S
    Zr7    O94       2.13164      .   S
    C92    O95       1.14564      .   S
    Zr0    O95       2.34509      .   S
    C96    O97       1.17007      .   S
    N34    O97       2.35640  1_554   S
    C96    O98       0.98322      .   S
    Zr6    O98       2.13509      .   S
    C96    O99       1.14570      .   S
    Zr1    O99       2.34542  1_655   S
    C100   O101      1.17023      .   S
    N44    O101      2.35662      .   S
    C100   O102      0.97910      .   S
    Zr0    O102      2.13092      .   S
    C100   O103      1.14440      .   S
    Zr6    O103      2.34303      .   S
    C104   O105      1.17026      .   S
    N16    O105      2.35676      .   S
    C104   O106      0.98016      .   S
    Zr1    O106      2.13238      .   S
    C104   O107      1.14549      .   S
    Zr7    O107      2.34453      .   S
    C108   O109      0.97961      .   S
    Zr1    O109      2.13165      .   S
    C108   O110      1.17022      .   S
    N47    O110      2.35663  1_554   S
    C108   O111      1.14579      .   S
    Zr7    O111      2.34518      .   S
