# CIF file generated by openbabel 2.4.90, see http://openbabel.sf.net
data_I
_chemical_name_common ''
_cell_length_a 14.277
_cell_length_b 14.864
_cell_length_c 15.152
_cell_angle_alpha 90.015
_cell_angle_beta 90.487
_cell_angle_gamma 90.041
_space_group_name_H-M_alt 'P 1'
_space_group_name_Hall 'P 1'
loop_
    _symmetry_equiv_pos_as_xyz
    x,y,z
loop_
    _atom_site_label
    _atom_site_type_symbol
    _atom_site_fract_x
    _atom_site_fract_y
    _atom_site_fract_z
    _atom_site_occupancy
    Zn0     Zn   0.05764   0.56268   0.90800   1.000
    Zn1     Zn   0.31666   0.31204   0.30055   1.000
    Zn2     Zn   0.44080   0.43754   0.41152   1.000
    Zn3     Zn   0.81877   0.19065   0.70006   1.000
    Zn4     Zn   0.94214   0.06267   0.59190   1.000
    Zn5     Zn   0.68330   0.81212   0.19945   1.000
    Zn6     Zn   0.55919   0.93751   0.08844   1.000
    C7      C    0.03550   0.77150   0.87805   1.000
    C8      C    0.76687   0.88554   0.05768   1.000
    C9      C    0.87347   0.05691   0.79271   1.000
    Zn10    Zn   0.18113   0.69069   0.79992   1.000
    C11     C    0.46215   0.22923   0.37836   1.000
    C12     C    0.73416   0.11503   0.55764   1.000
    C13     C    0.62472   0.94603   0.29059   1.000
    C14     C    0.96441   0.27147   0.62188   1.000
    C15     C    0.23306   0.38560   0.44220   1.000
    C16     C    0.12651   0.55708   0.70709   1.000
    C17     C    0.53781   0.72915   0.12157   1.000
    C18     C    0.26558   0.61473   0.94238   1.000
    C19     C    0.37523   0.44578   0.20925   1.000
    O20     O    0.08977   0.78551   0.81147   1.000
    O21     O    0.04117   0.70365   0.92867   1.000
    O22     O    0.77759   0.81584   0.10745   1.000
    O23     O    0.70483   0.94551   0.07000   1.000
    O24     O    0.80230   0.10965   0.80109   1.000
    O25     O    0.93475   0.07028   0.73319   1.000
    O26     O    0.40729   0.21580   0.31128   1.000
    O27     O    0.45664   0.29653   0.42969   1.000
    O28     O    0.72431   0.18497   0.60713   1.000
    O29     O    0.79617   0.05488   0.56992   1.000
    O30     O    0.69624   0.89357   0.29991   1.000
    O31     O    0.56356   0.93355   0.22995   1.000
    O32     O    0.91023   0.28547   0.68851   1.000
    O33     O    0.95874   0.20356   0.57129   1.000
    O34     O    0.22235   0.31580   0.39251   1.000
    O35     O    0.29518   0.44557   0.42990   1.000
    O36     O    0.19767   0.60990   0.69864   1.000
    O37     O    0.06533   0.57034   0.76673   1.000
    O38     O    0.59262   0.71580   0.18869   1.000
    O39     O    0.54330   0.79646   0.07029   1.000
    O40     O    0.27561   0.68454   0.89270   1.000
    O41     O    0.20326   0.55475   0.93032   1.000
    O42     O    0.30372   0.39321   0.19996   1.000
    O43     O    0.43634   0.43352   0.26996   1.000
    Og44    Og   0.01117   0.79469   0.88372   1.000
    Og45    Og   0.78862   0.88885   0.03245   1.000
    Og46    Og   0.87681   0.03114   0.81315   1.000
    Og47    Og   0.48664   0.20612   0.38395   1.000
    Og48    Og   0.71194   0.11178   0.53239   1.000
    Og49    Og   0.62141   0.97148   0.31135   1.000
    Og50    Og   0.98874   0.29468   0.61619   1.000
    Og51    Og   0.21129   0.38893   0.46742   1.000
    Og52    Og   0.12314   0.53131   0.68665   1.000
    Og53    Og   0.51332   0.70601   0.11596   1.000
    Og54    Og   0.28784   0.61148   0.96759   1.000
    Og55    Og   0.37855   0.47121   0.18848   1.000
loop_
    _geom_bond_atom_site_label_1
    _geom_bond_atom_site_label_2
    _geom_bond_distance
    _geom_bond_site_symmetry_2
    _ccdc_geom_bond_type
    C8     O23       1.27185      .   S
    C8     O22       1.29010      .   S
    O23    Zn6       2.10367      .   S
    O39    Zn6       2.12609      .   S
    O39    C17       1.26979      .   S
    Zn6    O31       2.14536      .   S
    O22    Zn5       1.94688      .   S
    C17    O38       1.29345      .   S
    O38    Zn5       1.93551      .   S
    Zn5    O30       1.95209      .   S
    O42    C19       1.29194      .   S
    O42    Zn1       1.95177      .   S
    C19    O43       1.27569      .   S
    O31    C13       1.27561      .   S
    O43    Zn2       2.14613      .   S
    C13    O30       1.29192      .   S
    Zn1    O26       1.93558      .   S
    Zn1    O34       1.94662      .   S
    O26    C11       1.29327      .   S
    C11    O27       1.26986      .   S
    O34    C15       1.28996      .   S
    Zn2    O27       2.12599      .   S
    Zn2    O35       2.10329      .   S
    O35    C15       1.27187      .   S
    C12    O29       1.27119      .   S
    C12    O28       1.29019      .   S
    O29    Zn4       2.11077      .   S
    O33    Zn4       2.13086      .   S
    O33    C14       1.26948      .   S
    Zn4    O25       2.14728      .   S
    O28    Zn3       1.94311      .   S
    C14    O32       1.29393      .   S
    O32    Zn3       1.92972      .   S
    O36    C16       1.29077      .   S
    O36    Zn10      1.96436      .   S
    Zn3    O24       1.96333      .   S
    C16    O37       1.27745      .   S
    O25    C9        1.27729      .   S
    O37    Zn0       2.14732      .   S
    C9     O24       1.29086      .   S
    Zn10   O20       1.92999      .   S
    Zn10   O40       1.94225      .   S
    O20    C7        1.29399      .   S
    C7     O21       1.26950      .   S
    O40    C18       1.29070      .   S
    Zn0    O21       2.13205      .   S
    Zn0    O41       2.10684      .   S
    O41    C18       1.27123      .   S
    C7     Og44      0.49755      .   S
    C8     Og45      0.49703      .   S
    C9     Og46      0.49475      .   S
    C11    Og47      0.49698      .   S
    C12    Og48      0.49723      .   S
    C13    Og49      0.49449      .   S
    C14    Og50      0.49744      .   S
    C15    Og51      0.49706      .   S
    C16    Og52      0.49464      .   S
    C17    Og53      0.49700      .   S
    C18    Og54      0.49724      .   S
    C19    Og55      0.49446      .   S
