# CIF file generated by openbabel 2.4.90, see http://openbabel.sf.net
data_I
_chemical_name_common ''
_cell_length_a 14.277
_cell_length_b 14.864
_cell_length_c 15.152
_cell_angle_alpha 90.015
_cell_angle_beta 90.487
_cell_angle_gamma 90.041
_space_group_name_H-M_alt 'P 1'
_space_group_name_Hall 'P 1'
loop_
    _symmetry_equiv_pos_as_xyz
    x,y,z
loop_
    _atom_site_label
    _atom_site_type_symbol
    _atom_site_fract_x
    _atom_site_fract_y
    _atom_site_fract_z
    _atom_site_occupancy
    C0      C    0.03550   0.77150   0.87805   1.000
    C1      C    0.76687   0.88554   0.05768   1.000
    C2      C    0.87347   0.05691   0.79271   1.000
    C3      C    0.46215   0.22923   0.37836   1.000
    C4      C    0.73416   0.11503   0.55764   1.000
    C5      C    0.62472   0.94603   0.29059   1.000
    C6      C    0.96441   0.27147   0.62188   1.000
    C7      C    0.23306   0.38560   0.44220   1.000
    C8      C    0.12651   0.55708   0.70709   1.000
    C9      C    0.53781   0.72915   0.12157   1.000
    C10     C    0.26558   0.61473   0.94238   1.000
    C11     C    0.37523   0.44578   0.20925   1.000
