# CIF file generated by openbabel 2.4.90, see http://openbabel.sf.net
data_I
_chemical_name_common ''
_cell_length_a 14.277
_cell_length_b 14.864
_cell_length_c 15.152
_cell_angle_alpha 90.015
_cell_angle_beta 90.487
_cell_angle_gamma 90.041
_space_group_name_H-M_alt 'P 1'
_space_group_name_Hall 'P 1'
loop_
    _symmetry_equiv_pos_as_xyz
    x,y,z
loop_
    _atom_site_label
    _atom_site_type_symbol
    _atom_site_fract_x
    _atom_site_fract_y
    _atom_site_fract_z
    _atom_site_occupancy
    Zr0     Zr   0.18113   0.69069   0.79992   1.000
    Zr1     Zr   0.05764   0.56268   0.90800   1.000
    Zr2     Zr   0.31666   0.31204   0.30055   1.000
    Zr3     Zr   0.44080   0.43754   0.41152   1.000
    Zr4     Zr   0.81877   0.19065   0.70006   1.000
    Zr5     Zr   0.94214   0.06267   0.59190   1.000
    Zr6     Zr   0.68330   0.81212   0.19945   1.000
    Zr7     Zr   0.55919   0.93751   0.08844   1.000
    Zr8     Zr   0.03550   0.77150   0.87805   1.000
    Zr9     Zr   0.76687   0.88554   0.05768   1.000
    Zr10    Zr   0.87347   0.05691   0.79271   1.000
    Zr11    Zr   0.46215   0.22923   0.37836   1.000
    Zr12    Zr   0.73416   0.11503   0.55764   1.000
    Zr13    Zr   0.62472   0.94603   0.29059   1.000
    Zr14    Zr   0.96441   0.27147   0.62188   1.000
    Zr15    Zr   0.23306   0.38560   0.44220   1.000
    Zr16    Zr   0.12651   0.55708   0.70709   1.000
    Zr17    Zr   0.53781   0.72915   0.12157   1.000
    Zr18    Zr   0.26558   0.61473   0.94238   1.000
    Zr19    Zr   0.37523   0.44578   0.20925   1.000
    Zr20    Zr   0.08977   0.78551   0.81147   1.000
    Zr21    Zr   0.04117   0.70365   0.92867   1.000
    Zr22    Zr   0.77759   0.81584   0.10745   1.000
    Zr23    Zr   0.70483   0.94551   0.07000   1.000
    Zr24    Zr   0.80230   0.10965   0.80109   1.000
    Zr25    Zr   0.93475   0.07028   0.73319   1.000
    Zr26    Zr   0.40729   0.21580   0.31128   1.000
    Zr27    Zr   0.45664   0.29653   0.42969   1.000
    Zr28    Zr   0.72431   0.18497   0.60713   1.000
    Zr29    Zr   0.79617   0.05488   0.56992   1.000
    Zr30    Zr   0.69624   0.89357   0.29991   1.000
    Zr31    Zr   0.56356   0.93355   0.22995   1.000
    Zr32    Zr   0.91023   0.28547   0.68851   1.000
    Zr33    Zr   0.95874   0.20356   0.57129   1.000
    Zr34    Zr   0.22235   0.31580   0.39251   1.000
    Zr35    Zr   0.29518   0.44557   0.42990   1.000
    Zr36    Zr   0.19767   0.60990   0.69864   1.000
    Zr37    Zr   0.06533   0.57034   0.76673   1.000
    Zr38    Zr   0.59262   0.71580   0.18869   1.000
    Zr39    Zr   0.54330   0.79646   0.07029   1.000
    Zr40    Zr   0.27561   0.68454   0.89270   1.000
    Zr41    Zr   0.20326   0.55475   0.93032   1.000
    Zr42    Zr   0.30372   0.39321   0.19996   1.000
    Zr43    Zr   0.43634   0.43352   0.26996   1.000
    O44     O    0.73585   0.91553   0.06384   1.000
    O45     O    0.77223   0.85069   0.08257   1.000
    O46     O    0.63201   0.94151   0.07922   1.000
    O47     O    0.55124   0.86699   0.07937   1.000
    O48     O    0.54055   0.76281   0.09593   1.000
    O49     O    0.56137   0.93553   0.15920   1.000
    O50     O    0.73044   0.81398   0.15345   1.000
    O51     O    0.56522   0.72247   0.15513   1.000
    O52     O    0.63796   0.76396   0.19407   1.000
    O53     O    0.68977   0.85285   0.24968   1.000
    O54     O    0.33948   0.41950   0.20461   1.000
    O55     O    0.31019   0.35262   0.25026   1.000
    O56     O    0.40579   0.43965   0.23961   1.000
    O57     O    0.59414   0.93979   0.26027   1.000
    O58     O    0.43857   0.43553   0.34074   1.000
    O59     O    0.66048   0.91980   0.29525   1.000
    O60     O    0.36197   0.26392   0.30592   1.000
    O61     O    0.26951   0.31392   0.34653   1.000
    O62     O    0.43472   0.22251   0.34482   1.000
    O63     O    0.45940   0.26288   0.40403   1.000
    O64     O    0.22771   0.35070   0.41736   1.000
    O65     O    0.44872   0.36703   0.42061   1.000
    O66     O    0.36799   0.44155   0.42071   1.000
    O67     O    0.26412   0.41559   0.43605   1.000
    O68     O    0.76517   0.08495   0.56378   1.000
    O69     O    0.72924   0.15000   0.58239   1.000
    O70     O    0.86916   0.05877   0.58091   1.000
    O71     O    0.95044   0.13311   0.58159   1.000
    O72     O    0.96157   0.23752   0.59659   1.000
    O73     O    0.93845   0.06647   0.66255   1.000
    O74     O    0.77154   0.18781   0.65359   1.000
    O75     O    0.93732   0.27847   0.65520   1.000
    O76     O    0.86450   0.23806   0.69429   1.000
    O77     O    0.16209   0.58349   0.70286   1.000
    O78     O    0.18940   0.65029   0.74928   1.000
    O79     O    0.81053   0.15015   0.75058   1.000
    O80     O    0.09592   0.56371   0.73691   1.000
    O81     O    0.90411   0.06360   0.76295   1.000
    O82     O    0.06149   0.56651   0.83737   1.000
    O83     O    0.83788   0.08328   0.79690   1.000
    O84     O    0.13545   0.73810   0.80570   1.000
    O85     O    0.22837   0.68762   0.84631   1.000
    O86     O    0.06264   0.77851   0.84476   1.000
    O87     O    0.03834   0.73757   0.90336   1.000
    O88     O    0.27059   0.64964   0.91754   1.000
    O89     O    0.04940   0.63316   0.91834   1.000
    O90     O    0.13045   0.55871   0.91916   1.000
    O91     O    0.23442   0.58474   0.93635   1.000
    N92     N    0.39391   0.59563   0.08994   1.000
    O93     O    0.38706   0.53978   0.13401   1.000
    O94     O    0.44749   0.64504   0.10155   1.000
    O95     O    0.34644   0.60275   0.03507   1.000
    N96     N    0.60601   0.09590   0.40993   1.000
    O97     O    0.55244   0.14523   0.39834   1.000
    O98     O    0.65342   0.10303   0.46485   1.000
    O99     O    0.61288   0.04005   0.36583   1.000
    N100    N    0.10723   0.40544   0.58949   1.000
    O101    O    0.05407   0.35586   0.60142   1.000
    O102    O    0.11434   0.46193   0.63296   1.000
    O103    O    0.15382   0.39801   0.53476   1.000
    N104    N    0.89253   0.90535   0.90924   1.000
    O105    O    0.88551   0.96180   0.86631   1.000
    O106    O    0.94576   0.85581   0.89790   1.000
    O107    O    0.84601   0.89793   0.96454   1.000
loop_
    _geom_bond_atom_site_label_1
    _geom_bond_atom_site_label_2
    _geom_bond_distance
    _geom_bond_site_symmetry_2
    _ccdc_geom_bond_type
    Zr9    O44       0.63592      .   S
    Zr23   O44       0.63592      .   S
    Zr9    O45       0.64505      .   S
    Zr22   O45       0.64505      .   S
    Zr23   O46       1.05183      .   S
    Zr7    O46       1.05183      .   S
    Zr39   O47       1.06304      .   S
    Zr7    O47       1.06304      .   S
    Zr39   O48       0.63490      .   S
    Zr17   O48       0.63490      .   S
    Zr7    O49       1.07268      .   S
    Zr31   O49       1.07268      .   S
    Zr22   O50       0.97344      .   S
    Zr6    O50       0.97344      .   S
    Zr17   O51       0.64672      .   S
    Zr38   O51       0.64672      .   S
    Zr38   O52       0.96775      .   S
    Zr6    O52       0.96775      .   S
    Zr6    O53       0.97604      .   S
    Zr30   O53       0.97604      .   S
    Zr42   O54       0.64597      .   S
    Zr19   O54       0.64597      .   S
    Zr42   O55       0.97588      .   S
    Zr2    O55       0.97588      .   S
    Zr19   O56       0.63784      .   S
    Zr43   O56       0.63784      .   S
    Zr31   O57       0.63780      .   S
    Zr13   O57       0.63780      .   S
    Zr43   O58       1.07307      .   S
    Zr3    O58       1.07307      .   S
    Zr13   O59       0.64596      .   S
    Zr30   O59       0.64596      .   S
    Zr2    O60       0.96779      .   S
    Zr26   O60       0.96779      .   S
    Zr2    O61       0.97331      .   S
    Zr34   O61       0.97331      .   S
    Zr26   O62       0.64664      .   S
    Zr11   O62       0.64664      .   S
    Zr11   O63       0.63493      .   S
    Zr27   O63       0.63493      .   S
    Zr34   O64       0.64498      .   S
    Zr15   O64       0.64498      .   S
    Zr3    O65       1.06300      .   S
    Zr27   O65       1.06300      .   S
    Zr3    O66       1.05165      .   S
    Zr35   O66       1.05165      .   S
    Zr35   O67       0.63593      .   S
    Zr15   O67       0.63593      .   S
    Zr12   O68       0.63559      .   S
    Zr29   O68       0.63559      .   S
    Zr12   O69       0.64510      .   S
    Zr28   O69       0.64510      .   S
    Zr29   O70       1.05539      .   S
    Zr5    O70       1.05539      .   S
    Zr33   O71       1.06543      .   S
    Zr5    O71       1.06543      .   S
    Zr33   O72       0.63474      .   S
    Zr14   O72       0.63474      .   S
    Zr5    O73       1.07364      .   S
    Zr25   O73       1.07364      .   S
    Zr28   O74       0.97156      .   S
    Zr4    O74       0.97156      .   S
    Zr14   O75       0.64697      .   S
    Zr32   O75       0.64697      .   S
    Zr32   O76       0.96486      .   S
    Zr4    O76       0.96486      .   S
    Zr36   O77       0.64538      .   S
    Zr16   O77       0.64538      .   S
    Zr36   O78       0.98218      .   S
    Zr0    O78       0.98218      .   S
    Zr4    O79       0.98167      .   S
    Zr24   O79       0.98167      .   S
    Zr16   O80       0.63872      .   S
    Zr37   O80       0.63872      .   S
    Zr25   O81       0.63864      .   S
    Zr10   O81       0.63864      .   S
    Zr37   O82       1.07366      .   S
    Zr1    O82       1.07366      .   S
    Zr10   O83       0.64543      .   S
    Zr24   O83       0.64543      .   S
    Zr0    O84       0.96500      .   S
    Zr20   O84       0.96500      .   S
    Zr0    O85       0.97113      .   S
    Zr40   O85       0.97113      .   S
    Zr20   O86       0.64699      .   S
    Zr8    O86       0.64699      .   S
    Zr8    O87       0.63475      .   S
    Zr21   O87       0.63475      .   S
    Zr40   O88       0.64535      .   S
    Zr18   O88       0.64535      .   S
    Zr1    O89       1.06602      .   S
    Zr21   O89       1.06602      .   S
    Zr1    O90       1.05342      .   S
    Zr41   O90       1.05342      .   S
    Zr41   O91       0.63562      .   S
    Zr18   O91       0.63562      .   S
    N92    O93       1.07054      .   S
    Zr19   O93       1.81217      .   S
    N92    O94       1.07348      .   S
    Zr17   O94       1.81894      .   S
    N92    O95       1.07344      .   S
    Zr18   O95       1.81928  1_556   S
    N96    O97       1.07336      .   S
    Zr11   O97       1.81879      .   S
    N96    O98       1.07333      .   S
    Zr12   O98       1.81916      .   S
    N96    O99       1.07059      .   S
    Zr13   O99       1.81227  1_565   S
    N100   O101      1.07395      .   S
    Zr14   O101      1.82007  1_655   S
    N100   O102      1.07128      .   S
    Zr16   O102      1.81319      .   S
    N100   O103      1.07321      .   S
    Zr15   O103      1.81879      .   S
    N104   O105      1.06619      .   S
    Zr10   O105      1.80823  1_545   S
    N104   O106      1.07339      .   S
    Zr8    O106      1.81964  1_455   S
    N104   O107      1.07917      .   S
    Zr9    O107      1.82468  1_554   S
