# CIF file generated by openbabel 2.4.90, see http://openbabel.sf.net
data_I
_chemical_name_common ''
_cell_length_a 10.1035
_cell_length_b 11.5595
_cell_length_c 14.892
_cell_angle_alpha 91.046
_cell_angle_beta 90.032
_cell_angle_gamma 90.037
_space_group_name_H-M_alt 'P 1'
_space_group_name_Hall 'P 1'
loop_
    _symmetry_equiv_pos_as_xyz
    x,y,z
loop_
    _atom_site_label
    _atom_site_type_symbol
    _atom_site_fract_x
    _atom_site_fract_y
    _atom_site_fract_z
    _atom_site_occupancy
    N0      N    0.28248   0.42380   0.94687   1.000
    N1      N    0.63616   0.54962   0.32009   1.000
    N2      N    0.83983   0.82412   0.32747   1.000
    N3      N    0.97299   0.47895   0.79275   1.000
    N4      N    0.71752   0.57617   0.05396   1.000
    N5      N    0.16017   0.17587   0.67255   1.000
    N6      N    0.21804   0.92269   0.44776   1.000
    N7      N    0.72794   0.92979   0.05797   1.000
    N8      N    0.39970   0.24240   0.46644   1.000
    N9      N    0.86390   0.04951   0.81993   1.000
    N10     N    0.09967   0.74243   0.96633   1.000
    N11     N    0.27205   0.07021   0.94205   1.000
    N12     N    0.02700   0.52103   0.20726   1.000
    N13     N    0.36384   0.45038   0.67994   1.000
    N14     N    0.90034   0.25757   0.03369   1.000
    N15     N    0.66046   0.32390   0.82735   1.000
    N16     N    0.22799   0.57033   0.44210   1.000
    N17     N    0.33954   0.67609   0.17267   1.000
    N18     N    0.60029   0.75759   0.53359   1.000
    N19     N    0.47570   0.02104   0.70756   1.000
    N20     N    0.77200   0.42966   0.55792   1.000
    N21     N    0.13610   0.95048   0.18009   1.000
    N22     N    0.52430   0.97896   0.29246   1.000
    N23     N    0.78196   0.07729   0.55227   1.000
    Zr24    Zr   0.57171   0.25471   0.62959   1.000
    O25     O    0.49980   0.31555   0.64987   1.000
    O26     O    0.63183   0.31614   0.60336   1.000
    O27     O    0.60863   0.27771   0.69357   1.000
    O28     O    0.51627   0.24303   0.57512   1.000
    O29     O    0.64635   0.19743   0.60810   1.000
    O30     O    0.53610   0.18078   0.65962   1.000
    Zr31    Zr   0.38248   0.24049   0.80865   1.000
    O32     O    0.38153   0.30666   0.76178   1.000
    O33     O    0.41783   0.17189   0.77154   1.000
    O34     O    0.35349   0.18170   0.85368   1.000
    O35     O    0.47277   0.27066   0.82027   1.000
    O36     O    0.34076   0.29979   0.85303   1.000
    O37     O    0.30276   0.21922   0.76779   1.000
    Zr38    Zr   0.07177   0.24525   0.87038   1.000
    O39     O    0.10857   0.22219   0.80637   1.000
    O40     O    0.01653   0.25693   0.92490   1.000
    O41     O    0.13189   0.18379   0.89661   1.000
    O42     O    0.99984   0.18439   0.85007   1.000
    O43     O    0.03548   0.31921   0.84042   1.000
    O44     O    0.14656   0.30276   0.89161   1.000
    Zr45    Zr   0.50000   0.99999   0.50001   1.000
    O46     O    0.52854   0.91616   0.50589   1.000
    O47     O    0.50613   0.99975   0.43079   1.000
    O48     O    0.40366   0.97820   0.48689   1.000
    O49     O    0.59633   0.02179   0.51314   1.000
    O50     O    0.49387   0.00024   0.56923   1.000
    O51     O    0.47145   0.08383   0.49413   1.000
    Zr52    Zr   0.92822   0.75474   0.12964   1.000
    O53     O    0.86810   0.81620   0.10341   1.000
    O54     O    0.00015   0.81560   0.14995   1.000
    O55     O    0.85343   0.69722   0.10862   1.000
    O56     O    0.96451   0.68078   0.15960   1.000
    O57     O    0.89142   0.77780   0.19365   1.000
    O58     O    0.98347   0.74306   0.07513   1.000
    Zr59    Zr   0.11750   0.74069   0.30875   1.000
    O60     O    0.08281   0.67200   0.27154   1.000
    O61     O    0.19712   0.71941   0.26790   1.000
    O62     O    0.02732   0.77085   0.32039   1.000
    O63     O    0.14651   0.68188   0.35376   1.000
    O64     O    0.11845   0.80681   0.26189   1.000
    O65     O    0.15940   0.79969   0.35337   1.000
    Zr66    Zr   0.50000   0.50000   0.50001   1.000
    O67     O    0.53891   0.58305   0.51327   1.000
    O68     O    0.46109   0.41694   0.48676   1.000
    O69     O    0.45209   0.49005   0.55971   1.000
    O70     O    0.41299   0.53055   0.47765   1.000
    O71     O    0.58701   0.46944   0.52238   1.000
    O72     O    0.54790   0.50995   0.44031   1.000
    Zr73    Zr   0.88250   0.25930   0.69127   1.000
    O74     O    0.91719   0.32799   0.72848   1.000
    O75     O    0.85348   0.31811   0.64627   1.000
    O76     O    0.80287   0.28058   0.73212   1.000
    O77     O    0.88155   0.19318   0.73813   1.000
    O78     O    0.84059   0.20030   0.64665   1.000
    O79     O    0.97268   0.22914   0.67963   1.000
    Zr80    Zr   0.61752   0.75950   0.19137   1.000
    O81     O    0.65924   0.70020   0.14720   1.000
    O82     O    0.64650   0.81829   0.14635   1.000
    O83     O    0.58216   0.82810   0.22848   1.000
    O84     O    0.52722   0.72933   0.17975   1.000
    O85     O    0.69723   0.78077   0.23223   1.000
    O86     O    0.61847   0.69333   0.23824   1.000
    Zr87    Zr   0.00000   0.50001   1.00000   1.000
    O88     O    0.02833   0.58385   0.99410   1.000
    O89     O    0.90345   0.52120   0.01389   1.000
    O90     O    0.97168   0.41615   0.00591   1.000
    O91     O    0.00740   0.50023   0.06907   1.000
    O92     O    0.09655   0.47879   0.98671   1.000
    O93     O    0.99261   0.49977   0.93093   1.000
    Zr94    Zr   0.42829   0.74528   0.37044   1.000
    O95     O    0.48372   0.75697   0.42491   1.000
    O96     O    0.46389   0.81922   0.34040   1.000
    O97     O    0.36817   0.68385   0.39666   1.000
    O98     O    0.39137   0.72228   0.30645   1.000
    O99     O    0.35365   0.80256   0.39192   1.000
    O100    O    0.50020   0.68444   0.35016   1.000
    Zr101   Zr   1.00000   0.00000   0.00000   1.000
    O102    O    0.91296   0.96949   0.02239   1.000
    O103    O    0.08703   0.03051   0.97762   1.000
    O104    O    0.95210   0.00992   0.94025   1.000
    O105    O    0.96128   0.08305   0.01329   1.000
    O106    O    0.04790   0.99008   0.05976   1.000
    O107    O    0.03872   0.91695   0.98672   1.000
loop_
    _geom_bond_atom_site_label_1
    _geom_bond_atom_site_label_2
    _geom_bond_distance
    _geom_bond_site_symmetry_2
    _ccdc_geom_bond_type
    Zr24   O25       1.05206      .   S
    N13    O25       2.11996      .   S
    Zr24   O26       1.01760      .   S
    N20    O26       2.05351      .   S
    Zr24   O27       1.05259      .   S
    N15    O27       2.11852      .   S
    Zr24   O28       0.99268      .   S
    N8     O28       2.00101      .   S
    Zr24   O29       1.05012      .   S
    N23    O29       2.11153      .   S
    Zr24   O30       1.03615      .   S
    N19    O30       2.08299      .   S
    Zr31   O32       1.04494      .   S
    N13    O32       2.08598      .   S
    Zr31   O33       1.02299      .   S
    N19    O33       2.05707      .   S
    Zr31   O34       1.00683      .   S
    N11    O34       2.03276      .   S
    Zr31   O35       0.99048      .   S
    N15    O35       1.99541      .   S
    Zr31   O36       1.03363      .   S
    N0     O36       2.06967      .   S
    Zr31   O37       1.03591      .   S
    N5     O37       2.07584      .   S
    Zr38   O39       1.05315      .   S
    N5     O39       2.11955      .   S
    Zr38   O40       0.99269      .   S
    N14    O40       2.00122  1_654   S
    Zr38   O41       1.01813      .   S
    N11    O41       2.05454      .   S
    Zr38   O42       1.05153  1_455   S
    N9     O42       2.11900      .   S
    Zr38   O43       1.03851      .   S
    N3     O43       2.08838  1_655   S
    Zr38   O44       1.05088      .   S
    N0     O44       2.11536      .   S
    Zr45   O46       1.01655      .   S
    N18    O46       2.02099      .   S
    Zr45   O47       1.03263      .   S
    N22    O47       2.07786      .   S
    Zr45   O48       1.02308      .   S
    N6     O48       2.06206      .   S
    Zr45   O49       1.02310  1_565   S
    N23    O49       2.06209      .   S
    Zr45   O50       1.03264  1_565   S
    N19    O50       2.07787      .   S
    Zr45   O51       1.01656  1_565   S
    N8     O51       2.02100      .   S
    Zr52   O53       1.01814      .   S
    N7     O53       2.05454      .   S
    Zr52   O54       1.05154  1_655   S
    N21    O54       2.11901      .   S
    Zr52   O55       1.05007      .   S
    N4     O55       2.11213      .   S
    Zr52   O56       1.03852      .   S
    N12    O56       2.08838  1_455   S
    Zr52   O57       1.05313      .   S
    N2     O57       2.11954      .   S
    Zr52   O58       0.99271      .   S
    N10    O58       2.00127  1_456   S
    Zr59   O60       1.02163      .   S
    N12    O60       2.05342      .   S
    Zr59   O61       1.03592      .   S
    N17    O61       2.07596      .   S
    Zr59   O62       0.99003      .   S
    N2     O62       1.99451  1_655   S
    Zr59   O63       1.00693      .   S
    N16    O63       2.03305      .   S
    Zr59   O64       1.04443      .   S
    N21    O64       2.08506      .   S
    Zr59   O65       1.03380      .   S
    N6     O65       2.06721      .   S
    Zr66   O67       1.05252      .   S
    N18    O67       2.12669      .   S
    Zr66   O68       1.05252      .   S
    N8     O68       2.12670      .   S
    Zr66   O69       1.02085      .   S
    N13    O69       2.05959      .   S
    Zr66   O70       1.00641      .   S
    N16    O70       1.99853      .   S
    Zr66   O71       1.00641      .   S
    N20    O71       1.99854      .   S
    Zr66   O72       1.02086      .   S
    N1     O72       2.05959      .   S
    Zr73   O74       1.02160      .   S
    N3     O74       2.05336      .   S
    Zr73   O75       1.00693      .   S
    N20    O75       2.03306      .   S
    Zr73   O76       1.03592      .   S
    N15    O76       2.07597      .   S
    Zr73   O77       1.04442      .   S
    N9     O77       2.08505      .   S
    Zr73   O78       1.03379      .   S
    N23    O78       2.06720      .   S
    Zr73   O79       0.99004      .   S
    N5     O79       1.99452  1_455   S
    Zr80   O81       1.03181      .   S
    N4     O81       2.06387      .   S
    Zr80   O82       1.00683      .   S
    N7     O82       2.03275      .   S
    Zr80   O83       1.02299      .   S
    N22    O83       2.05708      .   S
    Zr80   O84       0.99048      .   S
    N17    O84       1.99541      .   S
    Zr80   O85       1.03592      .   S
    N2     O85       2.07584      .   S
    Zr80   O86       1.04494      .   S
    N1     O86       2.08598      .   S
    Zr87   O88       1.01579      .   S
    N10    O88       2.01913      .   S
    Zr87   O89       1.02619  1_456   S
    N4     O89       2.06833      .   S
    Zr87   O90       1.01585  1_456   S
    N14    O90       2.01927      .   S
    Zr87   O91       1.03132  1_556   S
    N12    O91       2.07692      .   S
    Zr87   O92       1.02443      .   S
    N0     O92       2.06742      .   S
    Zr87   O93       1.03122  1_455   S
    N3     O93       2.07674      .   S
    Zr94   O95       0.99268      .   S
    N18    O95       2.00100      .   S
    Zr94   O96       1.03615      .   S
    N22    O96       2.08299      .   S
    Zr94   O97       1.01761      .   S
    N16    O97       2.05353      .   S
    Zr94   O98       1.05259      .   S
    N17    O98       2.11853      .   S
    Zr94   O99       1.05011      .   S
    N6     O99       2.11152      .   S
    Zr94   O100      1.05206      .   S
    N1     O100      2.11996      .   S
    Zr101  O102      1.00649  1_545   S
    N7     O102      1.99869      .   S
    Zr101  O103      1.00642  1_654   S
    N11    O103      1.99858      .   S
    Zr101  O104      1.02095  1_554   S
    N9     O104      2.05985      .   S
    Zr101  O105      1.05233      .   S
    N14    O105      2.12618      .   S
    Zr101  O106      1.02106  1_645   S
    N21    O106      2.06004      .   S
    Zr101  O107      1.05234  1_644   S
    N10    O107      2.12621      .   S
