# CIF file generated by openbabel 2.4.90, see http://openbabel.sf.net
data_I
_chemical_name_common ''
_cell_length_a 9.2075
_cell_length_b 11.1285
_cell_length_c 12.191
_cell_angle_alpha 85.613
_cell_angle_beta 89.858
_cell_angle_gamma 89.891
_space_group_name_H-M_alt 'P 1'
_space_group_name_Hall 'P 1'
loop_
    _symmetry_equiv_pos_as_xyz
    x,y,z
loop_
    _atom_site_label
    _atom_site_type_symbol
    _atom_site_fract_x
    _atom_site_fract_y
    _atom_site_fract_z
    _atom_site_occupancy
    N0      N    0.28405   0.04082   0.82361   1.000
    N1      N    0.21403   0.54234   0.32195   1.000
    N2      N    0.71638   0.95938   0.17501   1.000
    N3      N    0.78629   0.45870   0.67378   1.000
    Zr4     Zr   0.81334   0.88001   0.77735   1.000
    O5      O    0.79507   0.89977   0.89705   1.000
    O6      O    0.94814   0.93655   0.78086   1.000
    O7      O    0.65689   0.93015   0.78520   1.000
    O8      O    0.80878   0.75804   0.73944   1.000
    Zr9     Zr   0.18722   0.11975   0.22211   1.000
    O10     O    0.34371   0.06992   0.21438   1.000
    O11     O    0.05242   0.06340   0.21848   1.000
    O12     O    0.20585   0.10006   0.10217   1.000
    O13     O    0.19164   0.24224   0.25877   1.000
    Zr14    Zr   0.31324   0.62049   0.71857   1.000
    O15     O    0.29395   0.60144   0.59910   1.000
    O16     O    0.30831   0.74212   0.75690   1.000
    O17     O    0.44861   0.56369   0.71542   1.000
    O18     O    0.15747   0.57016   0.71138   1.000
    Zr19    Zr   0.51431   0.23978   0.92121   1.000
    O20     O    0.43644   0.18205   0.88302   1.000
    O21     O    0.47019   0.17170   0.89101   1.000
    O22     O    0.43859   0.18345   0.91029   1.000
    O23     O    0.59622   0.30955   0.84917   1.000
    Zr24    Zr   0.01857   0.26046   0.57414   1.000
    O25     O    0.09842   0.19035   0.64686   1.000
    O26     O    0.97381   0.32832   0.60490   1.000
    O27     O    0.94013   0.31790   0.61299   1.000
    O28     O    0.94215   0.31665   0.58572   1.000
    Zr29    Zr   0.98120   0.73954   0.42187   1.000
    O30     O    0.90128   0.80977   0.35017   1.000
    O31     O    0.05782   0.68373   0.41020   1.000
    O32     O    0.05979   0.68246   0.38291   1.000
    O33     O    0.02614   0.67196   0.39096   1.000
    Zr34    Zr   0.68708   0.38011   0.27700   1.000
    O35     O    0.69204   0.25833   0.23946   1.000
    O36     O    0.70647   0.39963   0.39650   1.000
    O37     O    0.84290   0.43051   0.28420   1.000
    O38     O    0.55165   0.43697   0.28018   1.000
    Zr39    Zr   0.48667   0.76065   0.07451   1.000
    O40     O    0.56252   0.81689   0.08633   1.000
    O41     O    0.56424   0.81828   0.11359   1.000
    O42     O    0.53061   0.82867   0.10548   1.000
    O43     O    0.40451   0.69107   0.14653   1.000
loop_
    _geom_bond_atom_site_label_1
    _geom_bond_atom_site_label_2
    _geom_bond_distance
    _geom_bond_site_symmetry_2
    _ccdc_geom_bond_type
    Zr4    O5        1.50130      .   S
    N2     O5        3.57457  1_554   S
    Zr4    O6        1.39486      .   S
    N0     O6        3.36130  1_445   S
    Zr4    O7        1.54915      .   S
    N0     O7        3.68586  1_545   S
    Zr4    O8        1.46765      .   S
    N3     O8        3.49166      .   S
    Zr9    O10       1.54807      .   S
    N2     O10       3.68567  1_565   S
    Zr9    O11       1.39403      .   S
    N2     O11       3.36299  1_665   S
    Zr9    O12       1.50438      .   S
    N0     O12       3.57960  1_556   S
    Zr9    O13       1.46731      .   S
    N1     O13       3.49085      .   S
    Zr14   O15       1.49877      .   S
    N1     O15       3.56988      .   S
    Zr14   O16       1.46597      .   S
    N0     O16       3.48867  1_545   S
    Zr14   O17       1.39827      .   S
    N3     O17       3.37025      .   S
    Zr14   O18       1.54585      .   S
    N3     O18       3.67966  1_655   S
    Zr19   O20       1.09214      .   S
    N0     O20       2.26957      .   S
    Zr19   O21       0.95869      .   S
    N0     O21       2.43592      .   S
    Zr19   O22       0.95482      .   S
    N0     O22       2.43585      .   S
    Zr19   O23       1.35554      .   S
    N3     O23       3.13670      .   S
    Zr24   O25       1.35293      .   S
    N0     O25       3.12927      .   S
    Zr24   O26       0.96026  1_455   S
    N3     O26       2.44160      .   S
    Zr24   O27       1.09434  1_455   S
    N3     O27       2.27480      .   S
    Zr24   O28       0.95779  1_455   S
    N3     O28       2.44020      .   S
    Zr29   O30       1.34645      .   S
    N2     O30       3.11347      .   S
    Zr29   O31       0.95665  1_655   S
    N1     O31       2.43811      .   S
    Zr29   O32       1.09335  1_655   S
    N1     O32       2.27254      .   S
    Zr29   O33       0.95923  1_655   S
    N1     O33       2.43940      .   S
    Zr34   O35       1.46379      .   S
    N2     O35       3.48304  1_565   S
    Zr34   O36       1.50045      .   S
    N3     O36       3.57111      .   S
    Zr34   O37       1.54654      .   S
    N1     O37       3.68093  1_455   S
    Zr34   O38       1.39909      .   S
    N1     O38       3.37158      .   S
    Zr39   O40       0.95710      .   S
    N2     O40       2.44312      .   S
    Zr39   O41       1.09485      .   S
    N2     O41       2.27636      .   S
    Zr39   O42       0.96176      .   S
    N2     O42       2.44236      .   S
    Zr39   O43       1.35568      .   S
    N1     O43       3.13687      .   S
