# CIF file generated by openbabel 2.4.90, see http://openbabel.sf.net
data_I
_chemical_name_common ''
_cell_length_a 9.2075
_cell_length_b 11.1285
_cell_length_c 12.191
_cell_angle_alpha 85.613
_cell_angle_beta 89.858
_cell_angle_gamma 89.891
_space_group_name_H-M_alt 'P 1'
_space_group_name_Hall 'P 1'
loop_
    _symmetry_equiv_pos_as_xyz
    x,y,z
loop_
    _atom_site_label
    _atom_site_type_symbol
    _atom_site_fract_x
    _atom_site_fract_y
    _atom_site_fract_z
    _atom_site_occupancy
    Zr0     Zr   0.18722   0.11975   0.22211   1.000
    Zr1     Zr   0.51431   0.23978   0.92121   1.000
    Zr2     Zr   0.68708   0.38011   0.27700   1.000
    Zr3     Zr   0.01857   0.26046   0.57414   1.000
    Zr4     Zr   0.81334   0.88001   0.77735   1.000
    Zr5     Zr   0.48667   0.76065   0.07451   1.000
    Zr6     Zr   0.31324   0.62049   0.71857   1.000
    Zr7     Zr   0.98120   0.73954   0.42187   1.000
    N8      N    0.28405   0.04082   0.82361   1.000
    O9      O    0.35857   0.12431   0.84483   1.000
    O10     O    0.17826   0.12024   0.71957   1.000
    O11     O    0.36287   0.12712   0.89937   1.000
    O12     O    0.50044   0.98028   0.79305   1.000
    O13     O    0.22447   0.08038   0.98222   1.000
    O14     O    0.30338   0.86375   0.79523   1.000
    O15     O    0.42607   0.10362   0.86082   1.000
    O16     O    0.08294   0.99309   0.78438   1.000
    N17     N    0.21403   0.54234   0.32195   1.000
    O18     O    0.13445   0.62791   0.39852   1.000
    O19     O    0.27467   0.58239   0.47963   1.000
    O20     O    0.19606   0.36473   0.29543   1.000
    O21     O    0.07108   0.60439   0.36005   1.000
    O22     O    0.41622   0.49384   0.28335   1.000
    O23     O    0.99871   0.48091   0.29140   1.000
    O24     O    0.13838   0.62538   0.34395   1.000
    O25     O    0.32234   0.62148   0.21855   1.000
    N26     N    0.71638   0.95938   0.17501   1.000
    O27     O    0.77679   0.91953   0.01675   1.000
    O28     O    0.69700   0.13655   0.20192   1.000
    O29     O    0.57455   0.89669   0.13646   1.000
    O30     O    0.91761   0.00704   0.21486   1.000
    O31     O    0.64182   0.87592   0.15267   1.000
    O32     O    0.82135   0.88000   0.27847   1.000
    O33     O    0.63836   0.87312   0.09815   1.000
    O34     O    0.50019   0.02010   0.20665   1.000
    N35     N    0.78629   0.45870   0.67378   1.000
    O36     O    0.67814   0.37931   0.77713   1.000
    O37     O    0.86573   0.37283   0.59729   1.000
    O38     O    0.72586   0.41915   0.51600   1.000
    O39     O    0.80422   0.63606   0.70154   1.000
    O40     O    0.00170   0.51982   0.70419   1.000
    O41     O    0.86168   0.37534   0.65185   1.000
    O42     O    0.92905   0.39617   0.63566   1.000
    O43     O    0.58398   0.50688   0.71228   1.000
loop_
    _geom_bond_atom_site_label_1
    _geom_bond_atom_site_label_2
    _geom_bond_distance
    _geom_bond_site_symmetry_2
    _ccdc_geom_bond_type
    N8     O9        1.20045      .   S
    Zr1    O9        2.18429      .   S
    N8     O10       1.78035      .   S
    Zr3    O10       2.70585      .   S
    N8     O11       1.56324      .   S
    Zr1    O11       1.90964      .   S
    N8     O12       2.14296  1_545   S
    Zr4    O12       3.09830      .   S
    N8     O13       2.08750      .   S
    Zr0    O13       3.00875  1_554   S
    N8     O14       2.03395  1_545   S
    Zr6    O14       2.93194      .   S
    N8     O15       1.56818      .   S
    Zr1    O15       1.91737      .   S
    N8     O16       1.99670  1_545   S
    Zr4    O16       2.78972  1_655   S
    N17    O18       1.56368      .   S
    Zr7    O18       1.91331  1_655   S
    N17    O19       2.08398      .   S
    Zr6    O19       2.99754      .   S
    N17    O20       2.03418      .   S
    Zr0    O20       2.93462      .   S
    N17    O21       1.57086      .   S
    Zr7    O21       1.91846  1_655   S
    N17    O22       2.00229      .   S
    Zr2    O22       2.79819      .   S
    N17    O23       2.14106  1_455   S
    Zr2    O23       3.09308      .   S
    N17    O24       1.20239      .   S
    Zr7    O24       2.18670  1_655   S
    N17    O25       1.78512      .   S
    Zr5    O25       2.71135      .   S
    N26    O27       2.08640      .   S
    Zr4    O27       3.00260  1_556   S
    N26    O28       2.03078  1_565   S
    Zr2    O28       2.92759      .   S
    N26    O29       1.57145      .   S
    Zr5    O29       1.92351      .   S
    N26    O30       1.99951  1_565   S
    Zr0    O30       2.78807  1_455   S
    N26    O31       1.20428      .   S
    Zr5    O31       2.18970      .   S
    N26    O32       1.77139      .   S
    Zr7    O32       2.69290      .   S
    N26    O33       1.56811      .   S
    Zr5    O33       1.91419      .   S
    N26    O34       2.14446  1_565   S
    Zr0    O34       3.09614      .   S
    N35    O36       1.78505      .   S
    Zr1    O36       2.71109      .   S
    N35    O37       1.56457      .   S
    Zr3    O37       1.91559  1_455   S
    N35    O38       2.08295      .   S
    Zr2    O38       3.00091      .   S
    N35    O39       2.03503      .   S
    Zr4    O39       2.93529      .   S
    N35    O40       2.14044  1_655   S
    Zr6    O40       3.09169      .   S
    N35    O41       1.20353      .   S
    Zr3    O41       2.18867  1_455   S
    N35    O42       1.57193      .   S
    Zr3    O42       1.92052  1_455   S
    N35    O43       2.00194      .   S
    Zr6    O43       2.79653      .   S
