# CIF file generated by openbabel 2.4.90, see http://openbabel.sf.net
data_I
_chemical_name_common ''
_cell_length_a 9.2075
_cell_length_b 11.1285
_cell_length_c 12.191
_cell_angle_alpha 85.613
_cell_angle_beta 89.858
_cell_angle_gamma 89.891
_space_group_name_H-M_alt 'P 1'
_space_group_name_Hall 'P 1'
loop_
    _symmetry_equiv_pos_as_xyz
    x,y,z
loop_
    _atom_site_label
    _atom_site_type_symbol
    _atom_site_fract_x
    _atom_site_fract_y
    _atom_site_fract_z
    _atom_site_occupancy
    C0      C    0.18722   0.11975   0.22211   1.000
    C1      C    0.51431   0.23978   0.92121   1.000
    C2      C    0.68708   0.38011   0.27700   1.000
    C3      C    0.01857   0.26046   0.57414   1.000
    C4      C    0.81334   0.88001   0.77735   1.000
    C5      C    0.48667   0.76065   0.07451   1.000
    C6      C    0.31324   0.62049   0.71857   1.000
    C7      C    0.98120   0.73954   0.42187   1.000
    C8      C    0.33768   0.93953   0.91060   1.000
    C9      C    0.38679   0.06759   0.68122   1.000
    C10     C    0.08528   0.99101   0.89823   1.000
    C11     C    0.14560   0.23355   0.84822   1.000
    C12     C    0.84027   0.55909   0.58789   1.000
    C13     C    0.89005   0.43065   0.81609   1.000
    C14     C    0.58877   0.50764   0.59950   1.000
    C15     C    0.64914   0.26627   0.64996   1.000
    C16     C    0.66280   0.05847   0.08933   1.000
    C17     C    0.61141   0.93051   0.31704   1.000
    C18     C    0.91542   0.00744   0.10233   1.000
    C19     C    0.85514   0.76746   0.15091   1.000
    C20     C    0.16010   0.44233   0.40809   1.000
    C21     C    0.11059   0.57010   0.17957   1.000
    C22     C    0.41167   0.49391   0.39638   1.000
    C23     C    0.35072   0.73517   0.34504   1.000
    C24     C    0.24531   0.15395   0.99555   1.000
    C25     C    0.30094   0.96513   0.82632   1.000
    C26     C    0.56050   0.03752   0.79984   1.000
    C27     C    0.40138   0.06198   0.77085   1.000
    C28     C    0.15603   0.03638   0.83474   1.000
    C29     C    0.21631   0.15603   0.87118   1.000
    C30     C    0.29287   0.85340   0.76092   1.000
    C31     C    0.07024   0.05907   0.72689   1.000
    C32     C    0.74787   0.34570   0.50213   1.000
    C33     C    0.80302   0.53405   0.67226   1.000
    C34     C    0.06320   0.46179   0.69655   1.000
    C35     C    0.90445   0.43682   0.72637   1.000
    C36     C    0.65914   0.46348   0.66286   1.000
    C37     C    0.71972   0.34357   0.62647   1.000
    C38     C    0.79482   0.64633   0.73695   1.000
    C39     C    0.57116   0.44060   0.76979   1.000
    C40     C    0.75721   0.84618   0.00283   1.000
    C41     C    0.69987   0.03459   0.17385   1.000
    C42     C    0.43897   0.96192   0.19753   1.000
    C43     C    0.59772   0.93731   0.22732   1.000
    C44     C    0.84336   0.96448   0.16441   1.000
    C45     C    0.78417   0.84464   0.12732   1.000
    C46     C    0.70773   0.14805   0.23671   1.000
    C47     C    0.92859   0.94141   0.27242   1.000
    C48     C    0.25272   0.65629   0.49343   1.000
    C49     C    0.19744   0.46708   0.32369   1.000
    C50     C    0.93719   0.53855   0.29886   1.000
    C51     C    0.09592   0.56395   0.26927   1.000
    C52     C    0.34122   0.53781   0.33294   1.000
    C53     C    0.28043   0.65784   0.36901   1.000
    C54     C    0.20550   0.35456   0.25940   1.000
    C55     C    0.42907   0.56014   0.22586   1.000
    C56     C    0.35187   0.17582   0.81091   1.000
    C57     C    0.12639   0.13884   0.65694   1.000
    C58     C    0.36907   0.18704   0.02907   1.000
    C59     C    0.14258   0.12012   0.05956   1.000
    C60     C    0.33219   0.75288   0.81514   1.000
    C61     C    0.62189   0.09306   0.87485   1.000
    C62     C    0.95033   0.01069   0.71294   1.000
    C63     C    0.25141   0.86420   0.66427   1.000
    C64     C    0.62034   0.95948   0.74761   1.000
    C65     C    0.85558   0.32351   0.68569   1.000
    C66     C    0.62567   0.36006   0.83976   1.000
    C67     C    0.87176   0.31348   0.46747   1.000
    C68     C    0.64380   0.37910   0.43946   1.000
    C69     C    0.83095   0.74685   0.68124   1.000
    C70     C    0.12504   0.40682   0.62094   1.000
    C71     C    0.45012   0.48964   0.78298   1.000
    C72     C    0.75650   0.63585   0.83445   1.000
    C73     C    0.12100   0.54141   0.75062   1.000
    C74     C    0.64783   0.82425   0.18618   1.000
    C75     C    0.87145   0.86171   0.34200   1.000
    C76     C    0.63400   0.81307   0.96809   1.000
    C77     C    0.86108   0.87936   0.93963   1.000
    C78     C    0.66816   0.24733   0.18065   1.000
    C79     C    0.37878   0.90736   0.12133   1.000
    C80     C    0.05047   0.98966   0.28730   1.000
    C81     C    0.74901   0.14000   0.33347   1.000
    C82     C    0.38077   0.04189   0.25448   1.000
    C83     C    0.14427   0.67732   0.31002   1.000
    C84     C    0.37462   0.64059   0.15577   1.000
    C85     C    0.12853   0.68743   0.52831   1.000
    C86     C    0.35737   0.62440   0.55606   1.000
    C87     C    0.16896   0.25448   0.31571   1.000
    C88     C    0.87507   0.59335   0.37444   1.000
    C89     C    0.54973   0.51057   0.21250   1.000
    C90     C    0.24379   0.36434   0.16192   1.000
    C91     C    0.87971   0.45885   0.24471   1.000
    O92     O    0.77069   0.84541   0.06507   1.000
    O93     O    0.80915   0.86277   0.97123   1.000
    O94     O    0.69561   0.82962   0.98546   1.000
    O95     O    0.44169   0.21341   0.97514   1.000
    O96     O    0.30719   0.17050   0.01231   1.000
    O97     O    0.16490   0.11994   0.14083   1.000
    O98     O    0.19394   0.13704   0.02755   1.000
    O99     O    0.43273   0.83400   0.09792   1.000
    O100    O    0.43065   0.70062   0.11514   1.000
    O101    O    0.56034   0.78686   0.02130   1.000
    O102    O    0.68134   0.04653   0.13159   1.000
    O103    O    0.87939   0.98596   0.13337   1.000
    O104    O    0.40888   0.93464   0.15943   1.000
    O105    O    0.81966   0.80605   0.13911   1.000
    O106    O    0.81377   0.90456   0.14586   1.000
    O107    O    0.71600   0.83444   0.15675   1.000
    O108    O    0.40185   0.60037   0.19082   1.000
    O109    O    0.22464   0.35945   0.21066   1.000
    O110    O    0.77162   0.99953   0.16913   1.000
    O111    O    0.88598   0.95294   0.21841   1.000
    O112    O    0.64880   0.98595   0.20059   1.000
    O113    O    0.70380   0.09132   0.20528   1.000
    O114    O    0.10326   0.56702   0.22442   1.000
    O115    O    0.68794   0.19769   0.20868   1.000
    O116    O    0.67762   0.31372   0.22883   1.000
    O117    O    0.62277   0.88078   0.20675   1.000
    O118    O    0.51835   0.94961   0.21243   1.000
    O119    O    0.40987   0.00190   0.22600   1.000
    O120    O    0.48940   0.53536   0.21918   1.000
    O121    O    0.61841   0.44534   0.24475   1.000
    O122    O    0.28400   0.08082   0.23829   1.000
    O123    O    0.11885   0.05470   0.25471   1.000
    O124    O    0.17809   0.18712   0.26891   1.000
    O125    O    0.38514   0.54897   0.27940   1.000
    O126    O    0.60457   0.93391   0.27218   1.000
    O127    O    0.72837   0.14403   0.28509   1.000
    O128    O    0.78340   0.41948   0.26085   1.000
    O129    O    0.90845   0.49870   0.27178   1.000
    O130    O    0.18723   0.30452   0.28756   1.000
    O131    O    0.20147   0.41082   0.29154   1.000
    O132    O    0.01656   0.55125   0.28406   1.000
    O133    O    0.12009   0.62064   0.28964   1.000
    O134    O    0.14668   0.51552   0.29648   1.000
    O135    O    0.98953   0.96553   0.27986   1.000
    O136    O    0.90002   0.90156   0.30721   1.000
    O137    O    0.66544   0.37961   0.35823   1.000
    O138    O    0.90613   0.56595   0.33665   1.000
    O139    O    0.21235   0.66758   0.33952   1.000
    O140    O    0.26933   0.50245   0.32831   1.000
    O141    O    0.17877   0.45471   0.36589   1.000
    O142    O    0.31082   0.59782   0.35098   1.000
    O143    O    0.37645   0.51586   0.36466   1.000
    O144    O    0.92633   0.80062   0.38193   1.000
    O145    O    0.31558   0.69650   0.35703   1.000
    O146    O    0.26657   0.65707   0.43122   1.000
    O147    O    0.92814   0.66644   0.39816   1.000
    O148    O    0.05486   0.71348   0.47509   1.000
    O149    O    0.69583   0.36240   0.47079   1.000
    O150    O    0.80981   0.32959   0.48480   1.000
    O151    O    0.94517   0.28697   0.52081   1.000
    O152    O    0.19063   0.67186   0.51087   1.000
    O153    O    0.30504   0.64035   0.52475   1.000
    O154    O    0.73380   0.34463   0.56430   1.000
    O155    O    0.33531   0.62244   0.63732   1.000
    O156    O    0.07181   0.33364   0.59754   1.000
    O157    O    0.07248   0.19965   0.61554   1.000
    O158    O    0.82165   0.54657   0.63007   1.000
    O159    O    0.62396   0.48556   0.63118   1.000
    O160    O    0.09412   0.43431   0.65875   1.000
    O161    O    0.68443   0.30492   0.63822   1.000
    O162    O    0.68943   0.40352   0.64466   1.000
    O163    O    0.78765   0.33354   0.65608   1.000
    O164    O    0.09832   0.09895   0.69191   1.000
    O165    O    0.73108   0.49876   0.66756   1.000
    O166    O    0.61515   0.45204   0.71633   1.000
    O167    O    0.27214   0.85880   0.71259   1.000
    O168    O    0.85374   0.48543   0.69931   1.000
    O169    O    0.79892   0.59019   0.70460   1.000
    O170    O    0.39409   0.06478   0.72603   1.000
    O171    O    0.81289   0.69659   0.70910   1.000
    O172    O    0.82215   0.81343   0.72930   1.000
    O173    O    0.88002   0.38017   0.70603   1.000
    O174    O    0.98383   0.44930   0.71146   1.000
    O175    O    0.09210   0.50160   0.72358   1.000
    O176    O    0.01029   0.03488   0.71991   1.000
    O177    O    0.88183   0.94535   0.74514   1.000
    O178    O    0.21712   0.58095   0.73459   1.000
    O179    O    0.38168   0.55507   0.75077   1.000
    O180    O    0.32271   0.68668   0.76685   1.000
    O181    O    0.89725   0.43373   0.77123   1.000
    O182    O    0.11314   0.04772   0.78081   1.000
    O183    O    0.77566   0.64109   0.78570   1.000
    O184    O    0.71684   0.91974   0.76248   1.000
    O185    O    0.59042   0.99850   0.77373   1.000
    O186    O    0.31253   0.80314   0.78803   1.000
    O187    O    0.29691   0.90927   0.79362   1.000
    O188    O    0.51064   0.46512   0.77638   1.000
    O189    O    0.59841   0.40033   0.80477   1.000
    O190    O    0.48094   0.04975   0.78534   1.000
    O191    O    0.37663   0.11890   0.79088   1.000
    O192    O    0.35116   0.01356   0.79858   1.000
    O193    O    0.83721   0.87968   0.85849   1.000
    O194    O    0.59120   0.06529   0.83735   1.000
    O195    O    0.28409   0.16593   0.84104   1.000
    O196    O    0.22849   0.00075   0.83053   1.000
    O197    O    0.31931   0.95233   0.86846   1.000
    O198    O    0.18617   0.09620   0.85296   1.000
    O199    O    0.12066   0.01369   0.86649   1.000
    O200    O    0.56999   0.29992   0.88048   1.000
    O201    O    0.18096   0.19479   0.85970   1.000
    O202    O    0.23081   0.15499   0.93336   1.000
    O203    O    0.56810   0.16642   0.89803   1.000
    O204    O    0.43309   0.20780   0.86606   1.000
    O205    O    0.93708   0.29199   0.62991   1.000
    O206    O    0.56725   0.79245   0.13034   1.000
    O207    O    0.06273   0.70843   0.36595   1.000
loop_
    _geom_bond_atom_site_label_1
    _geom_bond_atom_site_label_2
    _geom_bond_distance
    _geom_bond_site_symmetry_2
    _ccdc_geom_bond_type
    C40    O92       0.76858      .   S
    C45    O92       0.76858      .   S
    C40    O93       0.63220  1_554   S
    C77    O93       0.63220      .   S
    C40    O94       0.63835  1_554   S
    C76    O94       0.63835      .   S
    C58    O95       0.96671  1_554   S
    C1     O95       0.96671      .   S
    C58    O96       0.63796      .   S
    C24    O96       0.63796  1_556   S
    C59    O97       1.01228      .   S
    C0     O97       1.01228      .   S
    C59    O98       0.63211      .   S
    C24    O98       0.63211  1_556   S
    C5     O99       1.01387      .   S
    C79    O99       1.01387      .   S
    C5     O100      0.95247      .   S
    C84    O100      0.95247      .   S
    C5     O101      0.96720      .   S
    C76    O101      0.96720  1_556   S
    C16    O102      0.54963      .   S
    C41    O102      0.54963      .   S
    C18    O103      0.54428  1_545   S
    C44    O103      0.54428      .   S
    C79    O104      0.63813      .   S
    C42    O104      0.63813      .   S
    C45    O105      0.54963      .   S
    C19    O105      0.54963      .   S
    C45    O106      0.77077      .   S
    C44    O106      0.77077      .   S
    C45    O107      0.72700      .   S
    C74    O107      0.72700      .   S
    C84    O108      0.64543      .   S
    C55    O108      0.64543      .   S
    C90    O109      0.61783      .   S
    C54    O109      0.61783      .   S
    C44    O110      0.77082      .   S
    C41    O110      0.77082  1_545   S
    C44    O111      0.76944      .   S
    C47    O111      0.76944      .   S
    C41    O112      0.77046  1_545   S
    C43    O112      0.77046      .   S
    C41    O113      0.76408      .   S
    C46    O113      0.76408      .   S
    C21    O114      0.54921      .   S
    C51    O114      0.54921      .   S
    C78    O115      0.65283      .   S
    C46    O115      0.65283      .   S
    C78    O116      0.98244      .   S
    C2     O116      0.98244      .   S
    C74    O117      0.73156      .   S
    C43    O117      0.73156      .   S
    C42    O118      0.76310      .   S
    C43    O118      0.76310      .   S
    C42    O119      0.64266  1_565   S
    C82    O119      0.64266      .   S
    C89    O120      0.62762      .   S
    C55    O120      0.62762      .   S
    C89    O121      1.01842      .   S
    C2     O121      1.01842      .   S
    C0     O122      1.00344      .   S
    C82    O122      1.00344      .   S
    C0     O123      1.01721      .   S
    C80    O123      1.01721  1_565   S
    C0     O124      0.97960      .   S
    C87    O124      0.97960      .   S
    C55    O125      0.76908      .   S
    C52    O125      0.76908      .   S
    C43    O126      0.54909      .   S
    C17    O126      0.54909      .   S
    C46    O127      0.61847      .   S
    C81    O127      0.61847      .   S
    C91    O128      1.00229      .   S
    C2     O128      1.00229      .   S
    C91    O129      0.63158      .   S
    C50    O129      0.63158      .   S
    C54    O130      0.65347      .   S
    C87    O130      0.65347      .   S
    C54    O131      0.76440      .   S
    C49    O131      0.76440      .   S
    C51    O132      0.76313      .   S
    C50    O132      0.76313  1_655   S
    C51    O133      0.73074      .   S
    C83    O133      0.73074      .   S
    C51    O134      0.76904      .   S
    C49    O134      0.76904      .   S
    C47    O135      0.63221      .   S
    C80    O135      0.63221  1_455   S
    C47    O136      0.64566      .   S
    C75    O136      0.64566      .   S
    C2     O137      1.00922      .   S
    C68    O137      1.00922      .   S
    C50    O138      0.63837      .   S
    C88    O138      0.63837      .   S
    C83    O139      0.72726      .   S
    C53    O139      0.72726      .   S
    C49    O140      0.77506      .   S
    C52    O140      0.77506      .   S
    C49    O141      0.54953      .   S
    C20    O141      0.54953      .   S
    C52    O142      0.77086      .   S
    C53    O142      0.77086      .   S
    C52    O143      0.54798      .   S
    C22    O143      0.54798      .   S
    C75    O144      0.95062      .   S
    C7     O144      0.95062      .   S
    C23    O145      0.54948      .   S
    C53    O145      0.54948      .   S
    C53    O146      0.76814      .   S
    C48    O146      0.76814      .   S
    C88    O147      1.01103      .   S
    C7     O147      1.01103      .   S
    C7     O148      0.96835  1_655   S
    C85    O148      0.96835      .   S
    C68    O149      0.63225      .   S
    C32    O149      0.63225      .   S
    C67    O150      0.63789      .   S
    C32    O150      0.63789      .   S
    C67    O151      0.96884      .   S
    C3     O151      0.96884  1_455   S
    C48    O152      0.63775      .   S
    C85    O152      0.63775      .   S
    C48    O153      0.63212      .   S
    C86    O153      0.63212      .   S
    C32    O154      0.76779      .   S
    C37    O154      0.76779      .   S
    C86    O155      1.00929      .   S
    C6     O155      1.00929      .   S
    C3     O156      1.01128      .   S
    C70    O156      1.01128      .   S
    C3     O157      0.95226      .   S
    C57    O157      0.95226      .   S
    C12    O158      0.54955      .   S
    C33    O158      0.54955      .   S
    C14    O159      0.54799      .   S
    C36    O159      0.54799      .   S
    C70    O160      0.63840      .   S
    C34    O160      0.63840      .   S
    C37    O161      0.54953      .   S
    C15    O161      0.54953      .   S
    C37    O162      0.77058      .   S
    C36    O162      0.77058      .   S
    C37    O163      0.72709      .   S
    C65    O163      0.72709      .   S
    C57    O164      0.64541      .   S
    C31    O164      0.64541      .   S
    C36    O165      0.77515      .   S
    C33    O165      0.77515      .   S
    C36    O166      0.76896      .   S
    C39    O166      0.76896      .   S
    C63    O167      0.61822      .   S
    C30    O167      0.61822      .   S
    C33    O168      0.76944      .   S
    C35    O168      0.76944      .   S
    C33    O169      0.76469      .   S
    C38    O169      0.76469      .   S
    C9     O170      0.54913      .   S
    C27    O170      0.54913      .   S
    C69    O171      0.65331      .   S
    C38    O171      0.65331      .   S
    C69    O172      0.98216      .   S
    C4     O172      0.98216      .   S
    C65    O173      0.73095      .   S
    C35    O173      0.73095      .   S
    C34    O174      0.76313  1_455   S
    C35    O174      0.76313      .   S
    C34    O175      0.63158      .   S
    C73    O175      0.63158      .   S
    C62    O176      0.62351  1_655   S
    C31    O176      0.62351      .   S
    C62    O177      1.01857  1_545   S
    C4     O177      1.01857      .   S
    C6     O178      1.00127      .   S
    C73    O178      1.00127      .   S
    C6     O179      1.01838      .   S
    C71    O179      1.01838      .   S
    C6     O180      0.98164      .   S
    C60    O180      0.98164      .   S
    C35    O181      0.54920      .   S
    C13    O181      0.54920      .   S
    C31    O182      0.76974      .   S
    C28    O182      0.76974      .   S
    C38    O183      0.61802      .   S
    C72    O183      0.61802      .   S
    C64    O184      1.00242      .   S
    C4     O184      1.00242      .   S
    C64    O185      0.62136      .   S
    C26    O185      0.62136  1_545   S
    C30    O186      0.65306      .   S
    C60    O186      0.65306      .   S
    C30    O187      0.76479      .   S
    C25    O187      0.76479      .   S
    C39    O188      0.62767      .   S
    C71    O188      0.62767      .   S
    C39    O189      0.64539      .   S
    C66    O189      0.64539      .   S
    C27    O190      0.76350      .   S
    C26    O190      0.76350      .   S
    C27    O191      0.73191      .   S
    C56    O191      0.73191      .   S
    C27    O192      0.76868      .   S
    C25    O192      0.76868  1_565   S
    C4     O193      1.01363      .   S
    C77    O193      1.01363      .   S
    C26    O194      0.63800      .   S
    C61    O194      0.63800      .   S
    C56    O195      0.72766      .   S
    C29    O195      0.72766      .   S
    C25    O196      0.77897  1_565   S
    C28    O196      0.77897      .   S
    C25    O197      0.54951      .   S
    C8     O197      0.54951      .   S
    C28    O198      0.77024      .   S
    C29    O198      0.77024      .   S
    C28    O199      0.55168      .   S
    C10    O199      0.55168  1_565   S
    C66    O200      0.95207      .   S
    C1     O200      0.95207      .   S
    C11    O201      0.54958      .   S
    C29    O201      0.54958      .   S
    C29    O202      0.76931      .   S
    C24    O202      0.76931      .   S
    C61    O203      1.01227      .   S
    C1     O203      1.01227      .   S
    C56    O204      1.08539      .   S
    C1     O204      1.08539      .   S
    C65    O205      1.08696      .   S
    C3     O205      1.08696  1_455   S
    C74    O206      1.08599      .   S
    C5     O206      1.08599      .   S
    C83    O207      1.08667      .   S
    C7     O207      1.08667  1_655   S
