# CIF file generated by openbabel 2.4.90, see http://openbabel.sf.net
data_I
_chemical_name_common ''
_cell_length_a 13.544
_cell_length_b 14.801
_cell_length_c 21.599
_cell_angle_alpha 89.493
_cell_angle_beta 89.904
_cell_angle_gamma 90.087
_space_group_name_H-M_alt 'P 1'
_space_group_name_Hall 'P 1'
loop_
    _symmetry_equiv_pos_as_xyz
    x,y,z
loop_
    _atom_site_label
    _atom_site_type_symbol
    _atom_site_fract_x
    _atom_site_fract_y
    _atom_site_fract_z
    _atom_site_occupancy
    Zn0     Zn   0.49973   0.89397   0.93348   1.000
    Zn1     Zn   0.49987   0.60553   0.43447   1.000
    Zn2     Zn   0.50031   0.10603   0.06648   1.000
    Zn3     Zn   0.99973   0.60604   0.06649   1.000
    Zn4     Zn   0.00035   0.10554   0.43446   1.000
    Zn5     Zn   0.00031   0.39396   0.93349   1.000
    Zn6     Zn   0.99968   0.89446   0.56550   1.000
    Zn7     Zn   0.50017   0.39451   0.56548   1.000
