# CIF file generated by openbabel 2.4.90, see http://openbabel.sf.net
data_I
_chemical_name_common ''
_cell_length_a 13.544
_cell_length_b 14.801
_cell_length_c 21.599
_cell_angle_alpha 89.493
_cell_angle_beta 89.904
_cell_angle_gamma 90.087
_space_group_name_H-M_alt 'P 1'
_space_group_name_Hall 'P 1'
loop_
    _symmetry_equiv_pos_as_xyz
    x,y,z
loop_
    _atom_site_label
    _atom_site_type_symbol
    _atom_site_fract_x
    _atom_site_fract_y
    _atom_site_fract_z
    _atom_site_occupancy
    N0      N    0.00001   0.50001   0.49998   1.000
    N1      N    0.50325   0.18421   0.78281   1.000
    N2      N    0.00001   0.00001   0.99998   1.000
    N3      N    0.50001   0.00002   0.50000   1.000
    N4      N    0.99492   0.68398   0.78277   1.000
    N5      N    0.50002   0.50001   0.99999   1.000
    N6      N    0.99458   0.81406   0.28298   1.000
    N7      N    0.49585   0.68599   0.71698   1.000
    N8      N    0.00310   0.31602   0.21719   1.000
    N9      N    0.50417   0.31404   0.28297   1.000
    N10     N    0.00424   0.18595   0.71700   1.000
    N11     N    0.49679   0.81592   0.21715   1.000
    Zr12    Zr   0.00035   0.10554   0.43446   1.000
    O13     O    0.00095   0.16522   0.36915   1.000
    O14     O    0.99788   0.01607   0.39293   1.000
    O15     O    0.14547   0.07807   0.45053   1.000
    O16     O    0.00278   0.13053   0.51648   1.000
    O17     O    0.85533   0.07977   0.45185   1.000
    Zr18    Zr   0.50017   0.39451   0.56548   1.000
    O19     O    0.49808   0.48399   0.60702   1.000
    O20     O    0.50082   0.33493   0.63082   1.000
    O21     O    0.50265   0.36949   0.48347   1.000
    O22     O    0.64531   0.42198   0.54943   1.000
    O23     O    0.35517   0.42029   0.54811   1.000
    Zr24    Zr   0.49987   0.60553   0.43447   1.000
    O25     O    0.49922   0.66517   0.36914   1.000
    O26     O    0.49738   0.63055   0.51648   1.000
    O27     O    0.50195   0.51606   0.39293   1.000
    O28     O    0.35473   0.57806   0.45053   1.000
    O29     O    0.64486   0.57975   0.45185   1.000
    Zr30    Zr   0.50031   0.10603   0.06648   1.000
    O31     O    0.35524   0.08005   0.04888   1.000
    O32     O    0.64542   0.07827   0.05015   1.000
    O33     O    0.49839   0.01658   0.10723   1.000
    O34     O    0.50250   0.13087   0.98415   1.000
    O35     O    0.50117   0.16426   0.13194   1.000
    Zr36    Zr   0.99968   0.89446   0.56550   1.000
    O37     O    0.00185   0.98394   0.60704   1.000
    O38     O    0.99694   0.86947   0.48348   1.000
    O39     O    0.85456   0.92195   0.54944   1.000
    O40     O    0.99858   0.83478   0.63081   1.000
    O41     O    0.14470   0.92025   0.54812   1.000
    Zr42    Zr   0.49973   0.89397   0.93348   1.000
    O43     O    0.64480   0.91996   0.95108   1.000
    O44     O    0.35461   0.92174   0.94981   1.000
    O45     O    0.49886   0.83575   0.86802   1.000
    O46     O    0.50165   0.98345   0.89272   1.000
    O47     O    0.49754   0.86916   0.01581   1.000
    Zr48    Zr   0.99973   0.60604   0.06649   1.000
    O49     O    0.99714   0.63082   0.98415   1.000
    O50     O    0.14481   0.58006   0.04888   1.000
    O51     O    0.00158   0.51662   0.10724   1.000
    O52     O    0.99854   0.66428   0.13195   1.000
    O53     O    0.85461   0.57825   0.05018   1.000
    Zr54    Zr   0.00031   0.39396   0.93349   1.000
    O55     O    0.99795   0.48339   0.89272   1.000
    O56     O    0.85523   0.41995   0.95110   1.000
    O57     O    0.14543   0.42175   0.94980   1.000
    O58     O    0.00239   0.36918   0.01582   1.000
    O59     O    0.00120   0.33573   0.86803   1.000
loop_
    _geom_bond_atom_site_label_1
    _geom_bond_atom_site_label_2
    _geom_bond_distance
    _geom_bond_site_symmetry_2
    _ccdc_geom_bond_type
    Zr12   O13       1.65778      .   S
    N8     O13       3.95287      .   S
    Zr12   O14       1.60640  1_455   S
    N6     O14       3.83500  1_565   S
    Zr12   O15       2.03746      .   S
    N3     O15       5.05439      .   S
    Zr12   O16       1.81335      .   S
    N10    O16       4.41511      .   S
    Zr12   O17       2.03397  1_455   S
    N3     O17       5.05749      .   S
    Zr18   O19       1.60644      .   S
    N7     O19       3.83495      .   S
    Zr18   O20       1.65757      .   S
    N1     O20       3.95292      .   S
    Zr18   O21       1.81314      .   S
    N9     O21       4.41475      .   S
    Zr18   O22       2.03530      .   S
    N0     O22       5.04959  1_455   S
    Zr18   O23       2.03600      .   S
    N0     O23       5.06196      .   S
    Zr24   O25       1.65778      .   S
    N11    O25       3.95313      .   S
    Zr24   O26       1.81314      .   S
    N7     O26       4.41479      .   S
    Zr24   O27       1.60646      .   S
    N9     O27       3.83511      .   S
    Zr24   O28       2.03539      .   S
    N0     O28       5.04977      .   S
    Zr24   O29       2.03600      .   S
    N0     O29       5.06200  1_455   S
    Zr30   O31       2.03863      .   S
    N2     O31       5.06831  1_556   S
    Zr30   O32       2.03927      .   S
    N2     O32       5.05996  1_456   S
    Zr30   O33       1.58352      .   S
    N11    O33       3.78586  1_565   S
    Zr30   O34       1.81276  1_554   S
    N1     O34       4.41301      .   S
    Zr30   O35       1.66236      .   S
    N9     O35       3.96055      .   S
    Zr36   O37       1.60641  1_655   S
    N10    O37       3.83501  1_545   S
    Zr36   O38       1.81330      .   S
    N6     O38       4.41502      .   S
    Zr36   O39       2.03748      .   S
    N3     O39       5.05442  1_545   S
    Zr36   O40       1.65788      .   S
    N4     O40       3.95304      .   S
    Zr36   O41       2.03394  1_655   S
    N3     O41       5.05748  1_545   S
    Zr42   O43       2.03863      .   S
    N2     O43       5.06824  1_445   S
    Zr42   O44       2.03933      .   S
    N2     O44       5.06000  1_545   S
    Zr42   O45       1.66232      .   S
    N7     O45       3.96049      .   S
    Zr42   O46       1.58403      .   S
    N1     O46       3.78682  1_545   S
    Zr42   O47       1.81267  1_556   S
    N11    O47       4.41286      .   S
    Zr48   O49       1.81304  1_554   S
    N4     O49       4.41348      .   S
    Zr48   O50       2.03859  1_655   S
    N5     O50       5.06821  1_556   S
    Zr48   O51       1.58332  1_655   S
    N8     O51       3.78554      .   S
    Zr48   O52       1.66238      .   S
    N6     O52       3.96063      .   S
    Zr48   O53       2.03937      .   S
    N5     O53       5.06010  1_556   S
    Zr54   O55       1.58360  1_455   S
    N4     O55       3.78573      .   S
    Zr54   O56       2.03861  1_455   S
    N5     O56       5.06824      .   S
    Zr54   O57       2.03933      .   S
    N5     O57       5.06004      .   S
    Zr54   O58       1.81270  1_556   S
    N8     O58       4.41323      .   S
    Zr54   O59       1.66238      .   S
    N10    O59       3.96057      .   S
