# CIF file generated by openbabel 2.4.90, see http://openbabel.sf.net
data_I
_chemical_name_common ''
_cell_length_a 13.544
_cell_length_b 14.801
_cell_length_c 21.599
_cell_angle_alpha 89.493
_cell_angle_beta 89.904
_cell_angle_gamma 90.087
_space_group_name_H-M_alt 'P 1'
_space_group_name_Hall 'P 1'
loop_
    _symmetry_equiv_pos_as_xyz
    x,y,z
loop_
    _atom_site_label
    _atom_site_type_symbol
    _atom_site_fract_x
    _atom_site_fract_y
    _atom_site_fract_z
    _atom_site_occupancy
    Zr0     Zr   0.50017   0.39451   0.56548   1.000
    Zr1     Zr   0.49973   0.89397   0.93348   1.000
    Zr2     Zr   0.49987   0.60553   0.43447   1.000
    Zr3     Zr   0.50031   0.10603   0.06648   1.000
    Zr4     Zr   0.99973   0.60604   0.06649   1.000
    Zr5     Zr   0.00035   0.10554   0.43446   1.000
    Zr6     Zr   0.00031   0.39396   0.93349   1.000
    Zr7     Zr   0.99968   0.89446   0.56550   1.000
    N8      N    0.00001   0.50001   0.49998   1.000
    O9      O    0.79044   0.44945   0.53337   1.000
    O10     O    0.21017   0.44606   0.53074   1.000
    O11     O    0.20959   0.55058   0.46659   1.000
    O12     O    0.78986   0.55397   0.46922   1.000
    N13     N    0.50325   0.18421   0.78281   1.000
    O14     O    0.50146   0.27535   0.69616   1.000
    O15     O    0.50468   0.15571   0.90183   1.000
    O16     O    0.50357   0.07293   0.85195   1.000
    N17     N    0.00001   0.00001   0.99998   1.000
    O18     O    0.20950   0.94950   0.96613   1.000
    O19     O    0.78987   0.94594   0.96869   1.000
    O20     O    0.79053   0.05051   0.03383   1.000
    O21     O    0.21016   0.05407   0.03127   1.000
    N22     N    0.50001   0.00002   0.50000   1.000
    O23     O    0.29059   0.05059   0.46660   1.000
    O24     O    0.71032   0.05400   0.46925   1.000
    O25     O    0.70944   0.94944   0.53338   1.000
    O26     O    0.28971   0.94603   0.53074   1.000
    N27     N    0.99492   0.68398   0.78277   1.000
    O28     O    0.99747   0.77510   0.69613   1.000
    O29     O    0.99454   0.65560   0.90182   1.000
    O30     O    0.99560   0.57282   0.85196   1.000
    N31     N    0.50002   0.50001   0.99999   1.000
    O32     O    0.70949   0.55047   0.03387   1.000
    O33     O    0.28989   0.55408   0.03127   1.000
    O34     O    0.29054   0.44955   0.96611   1.000
    O35     O    0.71015   0.44593   0.96871   1.000
    N36     N    0.99458   0.81406   0.28298   1.000
    O37     O    0.99734   0.72251   0.19740   1.000
    O38     O    0.99421   0.84448   0.40147   1.000
    O39     O    0.99541   0.92660   0.35139   1.000
    N40     N    0.49585   0.68599   0.71698   1.000
    O41     O    0.49800   0.77752   0.80256   1.000
    O42     O    0.49489   0.65556   0.59850   1.000
    O43     O    0.49599   0.57346   0.64856   1.000
    N44     N    0.00310   0.31602   0.21719   1.000
    O45     O    0.00156   0.22490   0.30384   1.000
    O46     O    0.00448   0.34440   0.09814   1.000
    O47     O    0.00343   0.42719   0.14799   1.000
    N48     N    0.50417   0.31404   0.28297   1.000
    O49     O    0.50203   0.22249   0.19740   1.000
    O50     O    0.50513   0.34447   0.40146   1.000
    O51     O    0.50403   0.42658   0.35139   1.000
    N52     N    0.00424   0.18595   0.71700   1.000
    O53     O    0.00209   0.27750   0.80257   1.000
    O54     O    0.00522   0.15553   0.59850   1.000
    O55     O    0.00402   0.07341   0.64858   1.000
    N56     N    0.49679   0.81592   0.21715   1.000
    O57     O    0.49858   0.72481   0.30381   1.000
    O58     O    0.49535   0.84436   0.09813   1.000
    O59     O    0.49647   0.92713   0.14799   1.000
loop_
    _geom_bond_atom_site_label_1
    _geom_bond_atom_site_label_2
    _geom_bond_distance
    _geom_bond_site_symmetry_2
    _ccdc_geom_bond_type
    N8     O9        3.01892  1_455   S
    Zr0    O9        4.07061      .   S
    N8     O10       3.03059      .   S
    Zr0    O10       4.07200      .   S
    N8     O11       3.01900      .   S
    Zr2    O11       4.07079      .   S
    N8     O12       3.03063  1_455   S
    Zr2    O12       4.07199      .   S
    N13    O14       2.29750      .   S
    Zr0    O14       3.31513      .   S
    N13    O15       2.60146      .   S
    Zr3    O15       3.62551  1_554   S
    N13    O16       2.21347      .   S
    Zr1    O16       3.16807  1_565   S
    N17    O18       3.02526  1_545   S
    Zr1    O18       4.07865      .   S
    N17    O19       3.03429  1_445   S
    Zr1    O19       4.07725      .   S
    N17    O20       3.02527  1_456   S
    Zr3    O20       4.07854      .   S
    N17    O21       3.03435  1_556   S
    Zr3    O21       4.07727      .   S
    N22    O23       3.02156      .   S
    Zr5    O23       4.07491      .   S
    N22    O24       3.02815      .   S
    Zr5    O24       4.06794  1_455   S
    N22    O25       3.02156  1_545   S
    Zr7    O25       4.07495      .   S
    N22    O26       3.02817  1_545   S
    Zr7    O26       4.06787  1_655   S
    N27    O28       2.29724      .   S
    Zr7    O28       3.31577      .   S
    N27    O29       2.60161      .   S
    Zr4    O29       3.62609  1_554   S
    N27    O30       2.21285      .   S
    Zr6    O30       3.16719  1_455   S
    N31    O32       3.02533  1_556   S
    Zr4    O32       4.07873      .   S
    N31    O33       3.03430  1_556   S
    Zr4    O33       4.07718  1_655   S
    N31    O34       3.02531      .   S
    Zr6    O34       4.07866      .   S
    N31    O35       3.03431      .   S
    Zr6    O35       4.07722  1_455   S
    N36    O37       2.30170      .   S
    Zr4    O37       3.32476      .   S
    N36    O38       2.60252      .   S
    Zr7    O38       3.62660      .   S
    N36    O39       2.23650      .   S
    Zr5    O39       3.21280  1_445   S
    N40    O41       2.30162      .   S
    Zr1    O41       3.32463      .   S
    N40    O42       2.60248      .   S
    Zr2    O42       3.62628      .   S
    N40    O43       2.23644      .   S
    Zr0    O43       3.21287      .   S
    N44    O45       2.29716      .   S
    Zr5    O45       3.31556      .   S
    N44    O46       2.60174      .   S
    Zr6    O46       3.62539  1_556   S
    N44    O47       2.21301      .   S
    Zr4    O47       3.16663  1_655   S
    N48    O49       2.30165      .   S
    Zr3    O49       3.32472      .   S
    N48    O50       2.60245      .   S
    Zr0    O50       3.62627      .   S
    N48    O51       2.23657      .   S
    Zr2    O51       3.21293      .   S
    N52    O53       2.30164      .   S
    Zr6    O53       3.32476      .   S
    N52    O54       2.60259      .   S
    Zr5    O54       3.62669      .   S
    N52    O55       2.23652      .   S
    Zr7    O55       3.21282  1_665   S
    N56    O57       2.29745      .   S
    Zr2    O57       3.31556      .   S
    N56    O58       2.60141      .   S
    Zr1    O58       3.62535  1_556   S
    N56    O59       2.21309      .   S
    Zr3    O59       3.16703  1_545   S
