# CIF file generated by openbabel 2.4.90, see http://openbabel.sf.net
data_I
_chemical_name_common ''
_cell_length_a 9.0755
_cell_length_b 9.1395
_cell_length_c 18.989
_cell_angle_alpha 89.998
_cell_angle_beta 89.993
_cell_angle_gamma 70.226
_space_group_name_H-M_alt 'P 1'
_space_group_name_Hall 'P 1'
loop_
    _symmetry_equiv_pos_as_xyz
    x,y,z
loop_
    _atom_site_label
    _atom_site_type_symbol
    _atom_site_fract_x
    _atom_site_fract_y
    _atom_site_fract_z
    _atom_site_occupancy
    P0      P    0.35126   0.12209   0.08276   1.000
    P1      P    0.32298   0.50039   0.30032   1.000
    P2      P    0.22512   0.01411   0.35172   1.000
    P3      P    0.15536   0.37836   0.58270   1.000
    P4      P    0.18326   0.99982   0.80000   1.000
    P5      P    0.28070   0.48547   0.85101   1.000
    P6      P    0.65502   0.87785   0.91718   1.000
    P7      P    0.68331   0.49973   0.69967   1.000
    P8      P    0.78106   0.98593   0.64825   1.000
    P9      P    0.85123   0.62208   0.41718   1.000
    P10     P    0.82289   0.00012   0.20002   1.000
    P11     P    0.72558   0.51454   0.14897   1.000
    O12     O    0.08063   0.96374   0.35440   1.000
    O13     O    0.21149   0.13212   0.41044   1.000
    O14     O    0.32981   0.10761   0.00000   1.000
    O15     O    0.28736   0.42445   0.36746   1.000
    O16     O    0.18983   0.18791   0.11718   1.000
    O17     O    0.43905   0.95738   0.11448   1.000
    O18     O    0.24170   0.09603   0.27675   1.000
    O19     O    0.47486   0.53741   0.31489   1.000
    O20     O    0.38002   0.88016   0.35522   1.000
    O21     O    0.35120   0.38587   0.23744   1.000
    O22     O    0.18540   0.65008   0.27984   1.000
    O23     O    0.44954   0.23067   0.09595   1.000
    O24     O    0.10140   0.24339   0.27401   1.000
    O25     O    0.42535   0.53558   0.85212   1.000
    O26     O    0.29469   0.36797   0.91044   1.000
    O27     O    0.17694   0.39276   0.50340   1.000
    O28     O    0.21882   0.07582   0.86738   1.000
    O29     O    0.31675   0.31249   0.61714   1.000
    O30     O    0.06714   0.54267   0.61443   1.000
    O31     O    0.26450   0.40410   0.77676   1.000
    O32     O    0.03171   0.96236   0.81477   1.000
    O33     O    0.12591   0.61948   0.85507   1.000
    O34     O    0.15469   0.11402   0.73731   1.000
    O35     O    0.32110   0.85067   0.77897   1.000
    O36     O    0.05712   0.26980   0.59582   1.000
    O37     O    0.40466   0.25662   0.77402   1.000
    O38     O    0.92551   0.03638   0.64556   1.000
    O39     O    0.79396   0.86778   0.58935   1.000
    O40     O    0.67665   0.89226   0.99649   1.000
    O41     O    0.71893   0.57550   0.63248   1.000
    O42     O    0.81639   0.81202   0.88268   1.000
    O43     O    0.56725   0.04260   0.88547   1.000
    O44     O    0.76637   0.90558   0.72299   1.000
    O45     O    0.53145   0.46267   0.68514   1.000
    O46     O    0.62613   0.11986   0.64478   1.000
    O47     O    0.65505   0.61447   0.76248   1.000
    O48     O    0.82091   0.35010   0.72020   1.000
    O49     O    0.55670   0.76928   0.90404   1.000
    O50     O    0.90560   0.75728   0.72567   1.000
    O51     O    0.58106   0.46423   0.14784   1.000
    O52     O    0.71154   0.63201   0.08954   1.000
    O53     O    0.82977   0.60747   0.49647   1.000
    O54     O    0.78742   0.92426   0.13249   1.000
    O55     O    0.68981   0.68796   0.38277   1.000
    O56     O    0.93938   0.45780   0.38541   1.000
    O57     O    0.74162   0.59600   0.22322   1.000
    O58     O    0.97438   0.03769   0.18524   1.000
    O59     O    0.88050   0.38068   0.14494   1.000
    O60     O    0.85114   0.88584   0.26254   1.000
    O61     O    0.68500   0.14920   0.22110   1.000
    O62     O    0.94952   0.73068   0.40403   1.000
    O63     O    0.60134   0.74339   0.22594   1.000
loop_
    _geom_bond_atom_site_label_1
    _geom_bond_atom_site_label_2
    _geom_bond_distance
    _geom_bond_site_symmetry_2
    _ccdc_geom_bond_type
    O14    P0        1.59447      .   S
    P0     O23       1.56271      .   S
    P0     O17       1.56602  1_545   S
    P0     O16       1.52949      .   S
    O52    P11       1.53304      .   S
    O54    P10       1.54271  1_565   S
    O59    P11       1.52164      .   S
    O51    P11       1.52980      .   S
    P11    O57       1.62387      .   S
    O58    P10       1.55111      .   S
    P10    O61       1.55855      .   S
    P10    O60       1.54433  1_545   S
    O57    O63       1.50917      .   S
    O21    P1        1.55096      .   S
    O24    O18       1.50918      .   S
    O18    P2        1.63882      .   S
    O22    P1        1.55764      .   S
    P1     O19       1.55130      .   S
    P1     O15       1.53728      .   S
    P2     O12       1.53055  1_545   S
    P2     O20       1.52155  1_545   S
    P2     O13       1.52698      .   S
    O55    P9        1.52946      .   S
    O56    P9        1.56381      .   S
    O62    P9        1.56276      .   S
    P9     O53       1.52974      .   S
    O27    P3        1.52986      .   S
    P3     O36       1.56201      .   S
    P3     O30       1.56390      .   S
    P3     O29       1.52938      .   S
    O39    P8        1.53151      .   S
    O41    P7        1.53730      .   S
    O46    P8        1.52154  1_545   S
    O38    P8        1.53056  1_545   S
    P8     O44       1.62400      .   S
    O45    P7        1.55123      .   S
    P7     O48       1.55762      .   S
    P7     O47       1.55118      .   S
    O44    O50       1.50912      .   S
    O34    P4        1.54611  1_545   S
    O37    O31       1.50912      .   S
    O31    P5        1.62393      .   S
    O35    P4        1.55846      .   S
    P4     O32       1.55115      .   S
    P4     O28       1.54129  1_565   S
    P5     O25       1.52989      .   S
    P5     O33       1.52161      .   S
    P5     O26       1.53304      .   S
    O42    P6        1.52954      .   S
    O43    P6        1.56614  1_545   S
    O49    P6        1.56273      .   S
    P6     O40       1.53022      .   S
