# CIF file generated by openbabel 2.4.90, see http://openbabel.sf.net
data_I
_chemical_name_common ''
_cell_length_a 9.0755
_cell_length_b 9.1395
_cell_length_c 18.989
_cell_angle_alpha 89.998
_cell_angle_beta 89.993
_cell_angle_gamma 70.226
_space_group_name_H-M_alt 'P 1'
_space_group_name_Hall 'P 1'
loop_
    _symmetry_equiv_pos_as_xyz
    x,y,z
loop_
    _atom_site_label
    _atom_site_type_symbol
    _atom_site_fract_x
    _atom_site_fract_y
    _atom_site_fract_z
    _atom_site_occupancy
    Zr0     Zr   0.14488   0.34844   0.41042   1.000
    Zr1     Zr   0.03688   0.21092   0.18345   1.000
    Zr2     Zr   0.51815   0.29967   0.17722   1.000
    Zr3     Zr   0.36143   0.15166   0.91034   1.000
    Zr4     Zr   0.46947   0.28907   0.68349   1.000
    Zr5     Zr   0.98817   0.20008   0.67653   1.000
    Zr6     Zr   0.86141   0.65152   0.58955   1.000
    Zr7     Zr   0.96945   0.78890   0.81646   1.000
    Zr8     Zr   0.48809   0.70028   0.82277   1.000
    Zr9     Zr   0.64484   0.84831   0.08958   1.000
    Zr10    Zr   0.53683   0.71103   0.31653   1.000
    Zr11    Zr   0.01798   0.80003   0.32339   1.000
    N12     N    0.70694   0.55514   0.16341   1.000
    O13     O    0.62827   0.46855   0.16297   1.000
    O14     O    0.83281   0.42547   0.16380   1.000
    O15     O    0.63801   0.64118   0.21732   1.000
    O16     O    0.69256   0.64765   0.12648   1.000
    N17     N    0.82417   0.99942   0.20028   1.000
    O18     O    0.87936   0.92118   0.24662   1.000
    O19     O    0.77015   0.94285   0.15565   1.000
    O20     O    0.71287   0.11193   0.19972   1.000
    O21     O    0.91490   0.06186   0.19231   1.000
    N22     N    0.35190   0.12113   0.08207   1.000
    O23     O    0.34876   0.12538   0.01862   1.000
    O24     O    0.44692   0.01199   0.09205   1.000
    O25     O    0.41787   0.19315   0.10933   1.000
    O26     O    0.23263   0.16027   0.11620   1.000
    N27     N    0.29930   0.44487   0.83657   1.000
    O28     O    0.36818   0.35886   0.78266   1.000
    O29     O    0.31368   0.35234   0.87348   1.000
    O30     O    0.17349   0.57453   0.83617   1.000
    O31     O    0.37801   0.53140   0.83701   1.000
    N32     N    0.68193   0.50050   0.69999   1.000
    O33     O    0.62675   0.57894   0.74631   1.000
    O34     O    0.59119   0.43818   0.69216   1.000
    O35     O    0.79323   0.38779   0.69918   1.000
    O36     O    0.73605   0.55700   0.65550   1.000
    N37     N    0.79977   0.94547   0.66277   1.000
    O38     O    0.86865   0.85928   0.71691   1.000
    O39     O    0.81373   0.85256   0.62611   1.000
    O40     O    0.67379   0.07496   0.66345   1.000
    O41     O    0.87831   0.03185   0.66191   1.000
    N42     N    0.20672   0.05493   0.33709   1.000
    O43     O    0.33258   0.92526   0.33648   1.000
    O44     O    0.12801   0.96841   0.33799   1.000
    O45     O    0.13793   0.14104   0.28291   1.000
    O46     O    0.19245   0.14760   0.37376   1.000
    N47     N    0.18192   0.00054   0.79968   1.000
    O48     O    0.12667   0.07879   0.75330   1.000
    O49     O    0.23602   0.05714   0.84427   1.000
    O50     O    0.09125   0.93808   0.80765   1.000
    O51     O    0.29326   0.88801   0.80028   1.000
    N52     N    0.32436   0.49964   0.29999   1.000
    O53     O    0.27024   0.44304   0.34446   1.000
    O54     O    0.21303   0.61235   0.30080   1.000
    O55     O    0.41510   0.56193   0.30785   1.000
    O56     O    0.37952   0.42121   0.25366   1.000
    N57     N    0.65440   0.87880   0.91717   1.000
    O58     O    0.58840   0.80679   0.89029   1.000
    O59     O    0.77366   0.83963   0.88337   1.000
    O60     O    0.55937   0.98797   0.90754   1.000
    O61     O    0.65757   0.87454   0.98010   1.000
    N62     N    0.85194   0.62120   0.41717   1.000
    O63     O    0.94703   0.51216   0.40754   1.000
    O64     O    0.91784   0.69328   0.39044   1.000
    O65     O    0.84876   0.62535   0.48009   1.000
    O66     O    0.73263   0.66035   0.38341   1.000
    N67     N    0.15466   0.37922   0.58270   1.000
    O68     O    0.27388   0.34000   0.61651   1.000
    O69     O    0.15778   0.37491   0.51980   1.000
    O70     O    0.08865   0.30708   0.60944   1.000
    O71     O    0.05947   0.48816   0.59234   1.000
loop_
    _geom_bond_atom_site_label_1
    _geom_bond_atom_site_label_2
    _geom_bond_distance
    _geom_bond_site_symmetry_2
    _ccdc_geom_bond_type
    N12    O13       1.23226      .   S
    Zr2    O13       2.12078      .   S
    N12    O14       1.33923      .   S
    Zr1    O14       2.22643  1_455   S
    N12    O15       1.31328      .   S
    Zr10   O15       2.09828      .   S
    N12    O16       1.07186      .   S
    Zr9    O16       1.87202      .   S
    N17    O18       1.13773      .   S
    Zr11   O18       1.99791  1_455   S
    N17    O19       1.18203      .   S
    Zr9    O19       2.06867      .   S
    N17    O20       1.17256  1_565   S
    Zr2    O20       2.04891      .   S
    N17    O21       1.15954  1_565   S
    Zr1    O21       2.03229  1_455   S
    N22    O23       1.20555      .   S
    Zr3    O23       2.07782  1_556   S
    N22    O24       1.09208      .   S
    Zr9    O24       1.91005  1_565   S
    N22    O25       1.15170      .   S
    Zr2    O25       2.00952      .   S
    N22    O26       1.20721      .   S
    Zr1    O26       2.10813      .   S
    N27    O28       1.31301      .   S
    Zr4    O28       2.09781      .   S
    N27    O29       1.07178      .   S
    Zr3    O29       1.87193      .   S
    N27    O30       1.33885      .   S
    Zr7    O30       2.22550  1_655   S
    N27    O31       1.23208      .   S
    Zr8    O31       2.12053      .   S
    N32    O33       1.13811      .   S
    Zr8    O33       1.99423      .   S
    N32    O34       1.15843      .   S
    Zr4    O34       2.03064      .   S
    N32    O35       1.17371      .   S
    Zr5    O35       2.05042      .   S
    N32    O36       1.18034      .   S
    Zr6    O36       2.06729      .   S
    N37    O38       1.31737      .   S
    Zr7    O38       2.10384      .   S
    N37    O39       1.07188      .   S
    Zr6    O39       1.87279      .   S
    N37    O40       1.33889  1_565   S
    Zr4    O40       2.22643      .   S
    N37    O41       1.22974  1_565   S
    Zr5    O41       2.11488      .   S
    N42    O43       1.33911  1_545   S
    Zr10   O43       2.22653      .   S
    N42    O44       1.23209  1_545   S
    Zr11   O44       2.11707      .   S
    N42    O45       1.31733      .   S
    Zr1    O45       2.10236      .   S
    N42    O46       1.06998      .   S
    Zr0    O46       1.87188      .   S
    N47    O48       1.13844      .   S
    Zr5    O48       1.99789  1_655   S
    N47    O49       1.18218      .   S
    Zr3    O49       2.06912      .   S
    N47    O50       1.15911  1_545   S
    Zr7    O50       2.03186  1_655   S
    N47    O51       1.17292  1_545   S
    Zr8    O51       2.04940      .   S
    N52    O53       1.18060      .   S
    Zr0    O53       2.06775      .   S
    N52    O54       1.17391      .   S
    Zr11   O54       2.05066      .   S
    N52    O55       1.15838      .   S
    Zr10   O55       2.03058      .   S
    N52    O56       1.13822      .   S
    Zr2    O56       1.99439      .   S
    N57    O58       1.14864      .   S
    Zr8    O58       2.00503      .   S
    N57    O59       1.20385      .   S
    Zr7    O59       2.10444      .   S
    N57    O60       1.09111      .   S
    Zr3    O60       1.91041  1_545   S
    N57    O61       1.19567      .   S
    Zr9    O61       2.10026  1_554   S
    N62    O63       1.09061      .   S
    Zr0    O63       1.90997  1_455   S
    N62    O64       1.14711      .   S
    Zr11   O64       1.99963  1_455   S
    N62    O65       1.19539      .   S
    Zr6    O65       2.09977      .   S
    N62    O66       1.20397      .   S
    Zr10   O66       2.10445      .   S
    N67    O68       1.20381      .   S
    Zr4    O68       2.10404      .   S
    N67    O69       1.19497      .   S
    Zr0    O69       2.09906      .   S
    N67    O70       1.14828      .   S
    Zr5    O70       2.00357  1_655   S
    N67    O71       1.09051      .   S
    Zr6    O71       1.90973  1_655   S
