# CIF file generated by openbabel 2.4.90, see http://openbabel.sf.net
data_I
_chemical_name_common ''
_cell_length_a 9.0755
_cell_length_b 9.1395
_cell_length_c 18.989
_cell_angle_alpha 89.998
_cell_angle_beta 89.993
_cell_angle_gamma 70.226
_space_group_name_H-M_alt 'P 1'
_space_group_name_Hall 'P 1'
loop_
    _symmetry_equiv_pos_as_xyz
    x,y,z
loop_
    _atom_site_label
    _atom_site_type_symbol
    _atom_site_fract_x
    _atom_site_fract_y
    _atom_site_fract_z
    _atom_site_occupancy
    C0      C    0.14488   0.34844   0.41042   1.000
    C1      C    0.03688   0.21092   0.18345   1.000
    C2      C    0.51815   0.29967   0.17722   1.000
    C3      C    0.36143   0.15166   0.91034   1.000
    C4      C    0.46947   0.28907   0.68349   1.000
    C5      C    0.98817   0.20008   0.67653   1.000
    C6      C    0.86141   0.65152   0.58955   1.000
    C7      C    0.96945   0.78890   0.81646   1.000
    C8      C    0.48809   0.70028   0.82277   1.000
    C9      C    0.64484   0.84831   0.08958   1.000
    C10     C    0.53683   0.71103   0.31653   1.000
    C11     C    0.01798   0.80003   0.32339   1.000
    C12     C    0.35126   0.12209   0.08276   1.000
    C13     C    0.32298   0.50039   0.30032   1.000
    C14     C    0.22512   0.01411   0.35172   1.000
    C15     C    0.15536   0.37836   0.58270   1.000
    C16     C    0.18326   0.99982   0.80000   1.000
    C17     C    0.28070   0.48547   0.85101   1.000
    C18     C    0.65502   0.87785   0.91718   1.000
    C19     C    0.68331   0.49973   0.69967   1.000
    C20     C    0.78106   0.98593   0.64825   1.000
    C21     C    0.85123   0.62208   0.41718   1.000
    C22     C    0.82289   0.00012   0.20002   1.000
    C23     C    0.72558   0.51454   0.14897   1.000
    C24     C    0.08063   0.96374   0.35440   1.000
    C25     C    0.21149   0.13212   0.41044   1.000
    C26     C    0.32981   0.10761   0.00000   1.000
    C27     C    0.28736   0.42445   0.36746   1.000
    C28     C    0.18983   0.18791   0.11718   1.000
    C29     C    0.43905   0.95738   0.11448   1.000
    C30     C    0.24170   0.09603   0.27675   1.000
    C31     C    0.47486   0.53741   0.31489   1.000
    C32     C    0.38002   0.88016   0.35522   1.000
    C33     C    0.35120   0.38587   0.23744   1.000
    C34     C    0.18540   0.65008   0.27984   1.000
    C35     C    0.44954   0.23067   0.09595   1.000
    C36     C    0.10140   0.24339   0.27401   1.000
    C37     C    0.42535   0.53558   0.85212   1.000
    C38     C    0.29469   0.36797   0.91044   1.000
    C39     C    0.17694   0.39276   0.50340   1.000
    C40     C    0.21882   0.07582   0.86738   1.000
    C41     C    0.31675   0.31249   0.61714   1.000
    C42     C    0.06714   0.54267   0.61443   1.000
    C43     C    0.26450   0.40410   0.77676   1.000
    C44     C    0.03171   0.96236   0.81477   1.000
    C45     C    0.12591   0.61948   0.85507   1.000
    C46     C    0.15469   0.11402   0.73731   1.000
    C47     C    0.32110   0.85067   0.77897   1.000
    C48     C    0.05712   0.26980   0.59582   1.000
    C49     C    0.40466   0.25662   0.77402   1.000
    C50     C    0.92551   0.03638   0.64556   1.000
    C51     C    0.79396   0.86778   0.58935   1.000
    C52     C    0.67665   0.89226   0.99649   1.000
    C53     C    0.71893   0.57550   0.63248   1.000
    C54     C    0.81639   0.81202   0.88268   1.000
    C55     C    0.56725   0.04260   0.88547   1.000
    C56     C    0.76637   0.90558   0.72299   1.000
    C57     C    0.53145   0.46267   0.68514   1.000
    C58     C    0.62613   0.11986   0.64478   1.000
    C59     C    0.65505   0.61447   0.76248   1.000
    C60     C    0.82091   0.35010   0.72020   1.000
    C61     C    0.55670   0.76928   0.90404   1.000
    C62     C    0.90560   0.75728   0.72567   1.000
    C63     C    0.58106   0.46423   0.14784   1.000
    C64     C    0.71154   0.63201   0.08954   1.000
    C65     C    0.82977   0.60747   0.49647   1.000
    C66     C    0.78742   0.92426   0.13249   1.000
    C67     C    0.68981   0.68796   0.38277   1.000
    C68     C    0.93938   0.45780   0.38541   1.000
    C69     C    0.74162   0.59600   0.22322   1.000
    C70     C    0.97438   0.03769   0.18524   1.000
    C71     C    0.88050   0.38068   0.14494   1.000
    C72     C    0.85114   0.88584   0.26254   1.000
    C73     C    0.68500   0.14920   0.22110   1.000
    C74     C    0.94952   0.73068   0.40403   1.000
    C75     C    0.60134   0.74339   0.22594   1.000
    O76     O    0.34054   0.11485   0.04138   1.000
    O77     O    0.34562   0.12964   0.95517   1.000
    O78     O    0.40040   0.17638   0.08935   1.000
    O79     O    0.39516   0.03973   0.09862   1.000
    O80     O    0.27055   0.15500   0.09997   1.000
    O81     O    0.71856   0.57328   0.11925   1.000
    O82     O    0.54195   0.90284   0.10203   1.000
    O83     O    0.71613   0.88629   0.11103   1.000
    O84     O    0.66075   0.87028   0.04304   1.000
    O85     O    0.48385   0.26517   0.13659   1.000
    O86     O    0.11335   0.19942   0.15032   1.000
    O87     O    0.80516   0.96219   0.16625   1.000
    O88     O    0.80304   0.44761   0.14696   1.000
    O89     O    0.95869   0.29580   0.16420   1.000
    O90     O    0.65332   0.48938   0.14841   1.000
    O91     O    0.73360   0.55527   0.18610   1.000
    O92     O    0.60158   0.22444   0.19916   1.000
    O93     O    0.43468   0.34277   0.20733   1.000
    O94     O    0.00563   0.12431   0.18435   1.000
    O95     O    0.89864   0.01891   0.19263   1.000
    O96     O    0.75394   0.07466   0.21056   1.000
    O97     O    0.83701   0.94298   0.23128   1.000
    O98     O    0.67148   0.66970   0.22458   1.000
    O99     O    0.33709   0.44313   0.26888   1.000
    O100    O    0.93456   0.84294   0.29297   1.000
    O101    O    0.17155   0.16971   0.27538   1.000
    O102    O    0.23341   0.05507   0.31423   1.000
    O103    O    0.25419   0.57524   0.29008   1.000
    O104    O    0.10169   0.72506   0.30162   1.000
    O105    O    0.39892   0.51890   0.30760   1.000
    O106    O    0.30517   0.46242   0.33389   1.000
    O107    O    0.50585   0.62422   0.31571   1.000
    O108    O    0.45843   0.79560   0.33588   1.000
    O109    O    0.61332   0.69950   0.34965   1.000
    O110    O    0.98375   0.76536   0.36371   1.000
    O111    O    0.15287   0.98893   0.35306   1.000
    O112    O    0.30257   0.94714   0.35347   1.000
    O113    O    0.21830   0.07312   0.38108   1.000
    O114    O    0.21612   0.38644   0.38894   1.000
    O115    O    0.77052   0.65502   0.39997   1.000
    O116    O    0.04213   0.40312   0.39791   1.000
    O117    O    0.89530   0.53994   0.40130   1.000
    O118    O    0.90037   0.67638   0.41061   1.000
    O119    O    0.16091   0.37060   0.45691   1.000
    O120    O    0.84050   0.61477   0.45683   1.000
    O121    O    0.84559   0.62949   0.54301   1.000
    O122    O    0.16615   0.38556   0.54305   1.000
    O123    O    0.10624   0.32408   0.58926   1.000
    O124    O    0.11125   0.46052   0.59856   1.000
    O125    O    0.23605   0.34543   0.59992   1.000
    O126    O    0.78751   0.92686   0.61880   1.000
    O127    O    0.96427   0.59709   0.60199   1.000
    O128    O    0.79017   0.61351   0.61101   1.000
    O129    O    0.02264   0.23494   0.63618   1.000
    O130    O    0.39311   0.30078   0.65032   1.000
    O131    O    0.70112   0.53762   0.66608   1.000
    O132    O    0.70360   0.05290   0.64652   1.000
    O133    O    0.54780   0.20446   0.66414   1.000
    O134    O    0.85329   0.01116   0.64691   1.000
    O135    O    0.77372   0.94576   0.68562   1.000
    O136    O    0.90454   0.27509   0.69837   1.000
    O137    O    0.07143   0.15705   0.70692   1.000
    O138    O    0.50046   0.37587   0.68432   1.000
    O139    O    0.60738   0.48120   0.69240   1.000
    O140    O    0.75211   0.42491   0.70994   1.000
    O141    O    0.66918   0.55710   0.73108   1.000
    O142    O    0.83599   0.83143   0.72433   1.000
    O143    O    0.16897   0.05692   0.76866   1.000
    O144    O    0.57157   0.65738   0.79263   1.000
    O145    O    0.33458   0.33036   0.77538   1.000
    O146    O    0.27260   0.44479   0.81388   1.000
    O147    O    0.25218   0.92524   0.78948   1.000
    O148    O    0.40460   0.77548   0.80087   1.000
    O149    O    0.10748   0.98109   0.80738   1.000
    O150    O    0.20104   0.03782   0.83369   1.000
    O151    O    0.00058   0.87563   0.81562   1.000
    O152    O    0.04768   0.70419   0.83577   1.000
    O153    O    0.89292   0.80046   0.84957   1.000
    O154    O    0.52240   0.73478   0.86341   1.000
    O155    O    0.35303   0.51053   0.85157   1.000
    O156    O    0.20330   0.55248   0.85304   1.000
    O157    O    0.28769   0.42672   0.88072   1.000
    O158    O    0.29012   0.11374   0.88886   1.000
    O159    O    0.73570   0.84494   0.89993   1.000
    O160    O    0.46434   0.09713   0.89791   1.000
    O161    O    0.61114   0.96023   0.90133   1.000
    O162    O    0.60586   0.82357   0.91061   1.000
    O163    O    0.66584   0.88505   0.95684   1.000
    O164    O    0.04930   0.88189   0.33889   1.000
    O165    O    0.17818   0.24028   0.41043   1.000
    O166    O    0.06914   0.22716   0.22873   1.000
    O167    O    0.45672   0.61793   0.83744   1.000
    O168    O    0.32806   0.25982   0.91039   1.000
    O169    O    0.43707   0.27285   0.72875   1.000
    O170    O    0.95684   0.11823   0.66105   1.000
    O171    O    0.82768   0.75965   0.58945   1.000
    O172    O    0.93753   0.77309   0.77106   1.000
    O173    O    0.54961   0.38195   0.16253   1.000
    O174    O    0.67819   0.74016   0.08956   1.000
    O175    O    0.56908   0.72721   0.27123   1.000
loop_
    _geom_bond_atom_site_label_1
    _geom_bond_atom_site_label_2
    _geom_bond_distance
    _geom_bond_site_symmetry_2
    _ccdc_geom_bond_type
    C26    O76       0.79723      .   S
    C12    O76       0.79723      .   S
    C26    O77       0.89738  1_554   S
    C3     O77       0.89738      .   S
    C12    O78       0.78136      .   S
    C35    O78       0.78136      .   S
    C12    O79       0.78301      .   S
    C29    O79       0.78301  1_565   S
    C12    O80       0.76474      .   S
    C28    O80       0.76474      .   S
    C64    O81       0.76652      .   S
    C23    O81       0.76652      .   S
    C9     O82       0.92810      .   S
    C29    O82       0.92810      .   S
    C9     O83       0.92574      .   S
    C66    O83       0.92574      .   S
    C9     O84       0.92838      .   S
    C52    O84       0.92838  1_556   S
    C35    O85       0.92649      .   S
    C2     O85       0.92649      .   S
    C28    O86       0.91601      .   S
    C1     O86       0.91601      .   S
    C66    O87       0.77136      .   S
    C22    O87       0.77136  1_545   S
    C71    O88       0.76082      .   S
    C23    O88       0.76082      .   S
    C71    O89       0.93090      .   S
    C1     O89       0.93090  1_455   S
    C63    O90       0.76490      .   S
    C23    O90       0.76490      .   S
    C23    O91       0.81193      .   S
    C69    O91       0.81193      .   S
    C2     O92       0.93135      .   S
    C73    O92       0.93135      .   S
    C2     O93       0.92411      .   S
    C33    O93       0.92411      .   S
    C1     O94       0.92701      .   S
    C70    O94       0.92701  1_655   S
    C70    O95       0.77555      .   S
    C22    O95       0.77555      .   S
    C22    O96       0.77928      .   S
    C73    O96       0.77928      .   S
    C22    O97       0.77216  1_545   S
    C72    O97       0.77216      .   S
    C69    O98       0.75458      .   S
    C75    O98       0.75458      .   S
    C33    O99       0.77548      .   S
    C13    O99       0.77548      .   S
    C72    O100      0.92737      .   S
    C11    O100      0.92737  1_455   S
    C36    O101      0.75459      .   S
    C30    O101      0.75459      .   S
    C30    O102      0.81941      .   S
    C14    O102      0.81941      .   S
    C34    O103      0.77882      .   S
    C13    O103      0.77882      .   S
    C34    O104      0.93027      .   S
    C11    O104      0.93027      .   S
    C13    O105      0.77565      .   S
    C31    O105      0.77565      .   S
    C13    O106      0.76864      .   S
    C27    O106      0.76864      .   S
    C31    O107      0.92725      .   S
    C10    O107      0.92725      .   S
    C10    O108      0.93084      .   S
    C32    O108      0.93084      .   S
    C10    O109      0.91601      .   S
    C67    O109      0.91601      .   S
    C11    O110      0.92178  1_455   S
    C74    O110      0.92178      .   S
    C14    O111      0.76527  1_545   S
    C24    O111      0.76527      .   S
    C14    O112      0.76077  1_545   S
    C32    O112      0.76077      .   S
    C14    O113      0.76349      .   S
    C25    O113      0.76349      .   S
    C27    O114      0.92569      .   S
    C0     O114      0.92569      .   S
    C67    O115      0.76473      .   S
    C21    O115      0.76473      .   S
    C68    O116      0.92757  1_655   S
    C0     O116      0.92757      .   S
    C68    O117      0.78190      .   S
    C21    O117      0.78190      .   S
    C74    O118      0.78138      .   S
    C21    O118      0.78138      .   S
    C0     O119      0.92821      .   S
    C39    O119      0.92821      .   S
    C21    O120      0.76487      .   S
    C65    O120      0.76487      .   S
    C65    O121      0.92825      .   S
    C6     O121      0.92825      .   S
    C39    O122      0.76493      .   S
    C15    O122      0.76493      .   S
    C15    O123      0.78100      .   S
    C48    O123      0.78100      .   S
    C15    O124      0.78195      .   S
    C42    O124      0.78195      .   S
    C15    O125      0.76469      .   S
    C41    O125      0.76469      .   S
    C51    O126      0.76575      .   S
    C20    O126      0.76575      .   S
    C6     O127      0.92767      .   S
    C42    O127      0.92767  1_455   S
    C6     O128      0.92557      .   S
    C53    O128      0.92557      .   S
    C48    O129      0.92413      .   S
    C5     O129      0.92413  1_655   S
    C41    O130      0.91574      .   S
    C4     O130      0.91574      .   S
    C53    O131      0.76865      .   S
    C19    O131      0.76865      .   S
    C58    O132      0.76077      .   S
    C20    O132      0.76077  1_565   S
    C58    O133      0.93081      .   S
    C4     O133      0.93081      .   S
    C50    O134      0.76528      .   S
    C20    O134      0.76528  1_565   S
    C20    O135      0.81200      .   S
    C56    O135      0.81200      .   S
    C5     O136      0.93048      .   S
    C60    O136      0.93048      .   S
    C5     O137      0.92610  1_655   S
    C46    O137      0.92610      .   S
    C4     O138      0.92719      .   S
    C57    O138      0.92719      .   S
    C57    O139      0.77561      .   S
    C19    O139      0.77561      .   S
    C19    O140      0.77881      .   S
    C60    O140      0.77881      .   S
    C19    O141      0.77559      .   S
    C59    O141      0.77559      .   S
    C56    O142      0.75456      .   S
    C62    O142      0.75456      .   S
    C46    O143      0.77306      .   S
    C16    O143      0.77306  1_565   S
    C59    O144      0.92428      .   S
    C8     O144      0.92428      .   S
    C49    O145      0.75456      .   S
    C43    O145      0.75456      .   S
    C43    O146      0.81197      .   S
    C17    O146      0.81197      .   S
    C47    O147      0.77923      .   S
    C16    O147      0.77923      .   S
    C47    O148      0.93120      .   S
    C8     O148      0.93120      .   S
    C16    O149      0.77558      .   S
    C44    O149      0.77558      .   S
    C16    O150      0.77064  1_565   S
    C40    O150      0.77064      .   S
    C44    O151      0.92729      .   S
    C7     O151      0.92729  1_655   S
    C7     O152      0.93055  1_655   S
    C45    O152      0.93055      .   S
    C7     O153      0.91601      .   S
    C54    O153      0.91601      .   S
    C8     O154      0.92643      .   S
    C61    O154      0.92643      .   S
    C17    O155      0.76494      .   S
    C37    O155      0.76494      .   S
    C17    O156      0.76080      .   S
    C45    O156      0.76080      .   S
    C17    O157      0.76652      .   S
    C38    O157      0.76652      .   S
    C40    O158      0.92579      .   S
    C3     O158      0.92579      .   S
    C54    O159      0.76477      .   S
    C18    O159      0.76477      .   S
    C55    O160      0.92812      .   S
    C3     O160      0.92812      .   S
    C55    O161      0.78307  1_545   S
    C18    O161      0.78307      .   S
    C61    O162      0.78136      .   S
    C18    O162      0.78136      .   S
    C18    O163      0.76511      .   S
    C52    O163      0.76511      .   S
    C24    O164      0.93330      .   S
    C11    O164      0.93330      .   S
    C25    O165      0.93079      .   S
    C0     O165      0.93079      .   S
    C36    O166      0.93618      .   S
    C1     O166      0.93618      .   S
    C37    O167      0.93278      .   S
    C8     O167      0.93278      .   S
    C38    O168      0.93076      .   S
    C3     O168      0.93076      .   S
    C49    O169      0.93624      .   S
    C4     O169      0.93624      .   S
    C50    O170      0.93320      .   S
    C5     O170      0.93320      .   S
    C51    O171      0.93044      .   S
    C6     O171      0.93044      .   S
    C62    O172      0.93617      .   S
    C7     O172      0.93617      .   S
    C63    O173      0.93272      .   S
    C2     O173      0.93272      .   S
    C64    O174      0.93069      .   S
    C9     O174      0.93069      .   S
    C75    O175      0.93627      .   S
    C10    O175      0.93627      .   S
