# CIF file generated by openbabel 2.4.90, see http://openbabel.sf.net
data_I
_chemical_name_common ''
_cell_length_a 16.152
_cell_length_b 16.386
_cell_length_c 17.297
_cell_angle_alpha 89.875
_cell_angle_beta 103.749
_cell_angle_gamma 90.013
_space_group_name_H-M_alt 'P 1'
_space_group_name_Hall 'P 1'
loop_
    _symmetry_equiv_pos_as_xyz
    x,y,z
loop_
    _atom_site_label
    _atom_site_type_symbol
    _atom_site_fract_x
    _atom_site_fract_y
    _atom_site_fract_z
    _atom_site_occupancy
    Lv0     Lv   0.35020   0.20566   0.55850   1.000
    Lv1     Lv   0.43682   0.89418   0.91364   1.000
    Lv2     Lv   0.74812   0.24311   0.00930   1.000
    Lv3     Lv   0.64974   0.79432   0.43985   1.000
    Lv4     Lv   0.06288   0.39507   0.08496   1.000
    Lv5     Lv   0.08833   0.09916   0.42600   1.000
    Lv6     Lv   0.84864   0.29457   0.55780   1.000
    Lv7     Lv   0.56246   0.10484   0.08549   1.000
    Lv8     Lv   0.93646   0.60452   0.91348   1.000
    Lv9     Lv   0.75163   0.74299   0.98958   1.000
    Lv10    Lv   0.98889   0.98905   0.50438   1.000
    Lv11    Lv   0.49948   0.50001   0.49905   1.000
    Lv12    Lv   0.15017   0.70546   0.43995   1.000
    Lv13    Lv   0.22763   0.23265   0.99334   1.000
    Lv14    Lv   0.25086   0.75707   0.98931   1.000
