# CIF file generated by openbabel 2.4.90, see http://openbabel.sf.net
data_I
_chemical_name_common ''
_cell_length_a 16.152
_cell_length_b 16.386
_cell_length_c 17.297
_cell_angle_alpha 89.875
_cell_angle_beta 103.749
_cell_angle_gamma 90.013
_space_group_name_H-M_alt 'P 1'
_space_group_name_Hall 'P 1'
loop_
    _symmetry_equiv_pos_as_xyz
    x,y,z
loop_
    _atom_site_label
    _atom_site_type_symbol
    _atom_site_fract_x
    _atom_site_fract_y
    _atom_site_fract_z
    _atom_site_occupancy
    H0      H    0.80448   0.96886   0.64195   1.000
    H1      H    0.85456   0.83649   0.70742   1.000
    H2      H    0.74538   0.72861   0.71736   1.000
    H3      H    0.55035   0.90406   0.61242   1.000
    H4      H    0.46527   0.70267   0.64773   1.000
    H5      H    0.47110   0.79977   0.60195   1.000
    H6      H    0.41587   0.91251   0.66607   1.000
    H7      H    0.38239   0.97504   0.78459   1.000
    H8      H    0.48878   0.76521   0.92478   1.000
    H9      H    0.52403   0.70430   0.80654   1.000
    H10     H    0.30243   0.98027   0.86995   1.000
    H11     H    0.27032   0.04394   0.98662   1.000
    H12     H    0.48047   0.91573   0.13854   1.000
    H13     H    0.51644   0.85540   0.02069   1.000
    H14     H    0.33168   0.08644   0.13100   1.000
    H15     H    0.40735   0.00000   0.19464   1.000
    H16     H    0.18913   0.05444   0.09715   1.000
    H17     H    0.09800   0.87645   0.24138   1.000
    H18     H    0.24989   0.83272   0.29416   1.000
    H19     H    0.36644   0.90425   0.24806   1.000
    H20     H    0.91435   0.15617   0.56437   1.000
    H21     H    0.00000   0.28124   0.57923   1.000
    H22     H    0.78319   0.43290   0.54837   1.000
    H23     H    0.69246   0.30769   0.53842   1.000
    H24     H    0.66771   0.30269   0.10155   1.000
    H25     H    0.72017   0.29319   0.86971   1.000
    H26     H    0.82752   0.18216   0.91700   1.000
    H27     H    0.77660   0.19355   0.14897   1.000
    H28     H    0.90001   0.91380   0.40061   1.000
    H29     H    0.09694   0.09491   0.45200   1.000
    H30     H    0.69513   0.46921   0.35593   1.000
    H31     H    0.64490   0.33663   0.29174   1.000
    H32     H    0.75395   0.22841   0.28260   1.000
    H33     H    0.94921   0.40404   0.38540   1.000
    H34     H    0.03412   0.20220   0.35183   1.000
    H35     H    0.02840   0.29921   0.39740   1.000
    H36     H    0.08379   0.41198   0.33306   1.000
    H37     H    0.11731   0.47467   0.21443   1.000
    H38     H    0.01052   0.26528   0.07468   1.000
    H39     H    0.97517   0.20423   0.19303   1.000
    H40     H    0.19681   0.48054   0.12894   1.000
    H41     H    0.22913   0.54407   0.00000   1.000
    H42     H    0.01978   0.41505   0.86049   1.000
    H43     H    0.98353   0.35499   0.97853   1.000
    H44     H    0.16819   0.58599   0.86645   1.000
    H45     H    0.09263   0.52179   0.80395   1.000
    H46     H    0.31084   0.55404   0.90141   1.000
    H47     H    0.40220   0.37655   0.75758   1.000
    H48     H    0.25042   0.33260   0.70502   1.000
    H49     H    0.13375   0.40370   0.75110   1.000
    H50     H    0.58504   0.65589   0.43511   1.000
    H51     H    0.49266   0.78089   0.42026   1.000
    H52     H    0.71560   0.93266   0.44779   1.000
    H53     H    0.80630   0.80755   0.45720   1.000
    H54     H    0.83183   0.80286   0.89707   1.000
    H55     H    0.77970   0.79276   0.12907   1.000
    H56     H    0.67236   0.68188   0.08204   1.000
    H57     H    0.72307   0.69369   0.85004   1.000
    H58     H    0.60019   0.41504   0.59803   1.000
    H59     H    0.40226   0.59530   0.54588   1.000
    H60     H    0.19535   0.03069   0.35735   1.000
    H61     H    0.14499   0.16277   0.29146   1.000
    H62     H    0.25391   0.27100   0.28160   1.000
    H63     H    0.44934   0.09620   0.38729   1.000
    H64     H    0.53402   0.29765   0.35161   1.000
    H65     H    0.52846   0.20072   0.39775   1.000
    H66     H    0.58391   0.08793   0.33390   1.000
    H67     H    0.61746   0.02511   0.21560   1.000
    H68     H    0.50999   0.23413   0.07469   1.000
    H69     H    0.47467   0.29533   0.19270   1.000
    H70     H    0.69712   0.01961   0.13010   1.000
    H71     H    0.72946   0.95587   0.00000   1.000
    H72     H    0.51918   0.08374   0.86139   1.000
    H73     H    0.48296   0.14403   0.97910   1.000
    H74     H    0.66898   0.91357   0.86846   1.000
    H75     H    0.59231   0.97672   0.80559   1.000
    H76     H    0.81114   0.94713   0.90249   1.000
    H77     H    0.89940   0.12532   0.75659   1.000
    H78     H    0.74698   0.16752   0.70424   1.000
    H79     H    0.63158   0.09518   0.75137   1.000
    H80     H    0.08513   0.84381   0.43420   1.000
    H81     H    0.99287   0.71871   0.41850   1.000
    H82     H    0.21631   0.56717   0.44872   1.000
    H83     H    0.30700   0.69244   0.45924   1.000
    H84     H    0.33038   0.69710   0.89653   1.000
    H85     H    0.28002   0.70762   0.12917   1.000
    H86     H    0.17248   0.81848   0.08212   1.000
    H87     H    0.22105   0.80591   0.84935   1.000
    H88     H    0.09938   0.08550   0.59767   1.000
    H89     H    0.90246   0.90433   0.54627   1.000
    C90     C    0.70097   0.72455   0.44622   1.000
    C91     C    0.61258   0.71674   0.43680   1.000
    C92     C    0.56150   0.78603   0.42875   1.000
    C93     C    0.59817   0.86420   0.43220   1.000
    H94     H    0.30441   0.53049   0.64128   1.000
    H95     H    0.35492   0.66234   0.70702   1.000
    H96     H    0.24608   0.77037   0.71725   1.000
    H97     H    0.05049   0.59586   0.61217   1.000
    H98     H    0.96600   0.79737   0.64761   1.000
    H99     H    0.97161   0.70052   0.60167   1.000
    H100    H    0.91592   0.58740   0.66583   1.000
    H101    H    0.88228   0.52456   0.78439   1.000
    H102    H    0.98915   0.73373   0.92441   1.000
    H103    H    0.02457   0.79495   0.80619   1.000
    H104    H    0.80258   0.51888   0.87013   1.000
    H105    H    0.77022   0.45561   0.98724   1.000
    H106    H    0.98017   0.58407   0.13845   1.000
    H107    H    0.00000   0.64387   0.02030   1.000
    H108    H    0.83129   0.41373   0.13289   1.000
    H109    H    0.90688   0.47804   0.19523   1.000
    H110    H    0.68876   0.44551   0.09795   1.000
    H111    H    0.59727   0.62432   0.24041   1.000
    H112    H    0.74906   0.66852   0.29263   1.000
    H113    H    0.86576   0.59689   0.24709   1.000
    H114    H    0.41493   0.34404   0.56277   1.000
    H115    H    0.50733   0.21903   0.57846   1.000
    H116    H    0.28433   0.06735   0.55112   1.000
    H117    H    0.19358   0.19251   0.54075   1.000
    H118    H    0.16717   0.19755   0.10037   1.000
    H119    H    0.22205   0.20524   0.86942   1.000
    H120    H    0.32897   0.31656   0.91635   1.000
    H121    H    0.27592   0.30670   0.14752   1.000
    C122    C    0.23419   0.78372   0.91042   1.000
    C123    C    0.00121   0.99414   0.58055   1.000
    C124    C    0.05591   0.04827   0.55390   1.000
    H125    H    0.39867   0.58486   0.40000   1.000
    H126    H    0.59689   0.40494   0.45220   1.000
    C127    C    0.75959   0.92247   0.65093   1.000
    C128    C    0.78656   0.84745   0.68614   1.000
    C129    C    0.72660   0.78884   0.69242   1.000
    C130    C    0.63938   0.80701   0.66527   1.000
    C131    C    0.61638   0.88466   0.63346   1.000
    C132    C    0.49353   0.76389   0.65675   1.000
    C133    C    0.47294   0.80422   0.72813   1.000
    C134    C    0.43230   0.88025   0.72296   1.000
    C135    C    0.41294   0.91527   0.79009   1.000
    C136    C    0.43346   0.87568   0.86453   1.000
    C137    C    0.47418   0.79910   0.86880   1.000
    C138    C    0.49349   0.76404   0.80203   1.000
    C139    C    0.41244   0.91265   0.93560   1.000
    C140    C    0.34323   0.96662   0.92835   1.000
    C141    C    0.32391   0.00000   0.99501   1.000
    C142    C    0.37219   0.98369   0.07168   1.000
    C143    C    0.44084   0.92961   0.07954   1.000
    C144    C    0.46089   0.89505   0.01276   1.000
    C145    C    0.35180   0.00000   0.14384   1.000
    C146    C    0.19986   0.00000   0.14007   1.000
    C147    C    0.13008   0.96781   0.16246   1.000
    C148    C    0.14955   0.90527   0.22046   1.000
    C149    C    0.23376   0.88123   0.25006   1.000
    C150    C    0.29960   0.91915   0.22488   1.000
    C151    C    0.79810   0.22479   0.55119   1.000
    C152    C    0.88665   0.21700   0.56185   1.000
    C153    C    0.93765   0.28632   0.56993   1.000
    C154    C    0.90077   0.36445   0.56550   1.000
    C155    C    0.81196   0.37234   0.55266   1.000
    C156    C    0.76122   0.30280   0.54649   1.000
    C157    C    0.70393   0.27718   0.06165   1.000
    C158    C    0.68755   0.30489   0.98260   1.000
    C159    C    0.73301   0.27081   0.93074   1.000
    C160    C    0.79252   0.20945   0.95702   1.000
    C161    C    0.80817   0.18107   0.03572   1.000
    C162    C    0.76405   0.21608   0.08805   1.000
    C163    C    0.99815   0.00519   0.41770   1.000
    C164    C    0.94349   0.95101   0.44437   1.000
    C165    C    0.05435   0.05363   0.47334   1.000
    C166    C    0.73999   0.42272   0.34719   1.000
    C167    C    0.71293   0.34754   0.31276   1.000
    C168    C    0.77282   0.28875   0.30695   1.000
    C169    C    0.86007   0.30685   0.33380   1.000
    C170    C    0.88317   0.38469   0.36473   1.000
    C171    C    0.00588   0.26346   0.34273   1.000
    C172    C    0.02645   0.30392   0.27123   1.000
    C173    C    0.06724   0.37985   0.27624   1.000
    C174    C    0.08665   0.41497   0.20903   1.000
    C175    C    0.06604   0.37557   0.13467   1.000
    C176    C    0.02518   0.29907   0.13051   1.000
    C177    C    0.00581   0.26392   0.19740   1.000
    C178    C    0.08715   0.41258   0.06349   1.000
    C179    C    0.15622   0.46670   0.07050   1.000
    C180    C    0.17569   0.50183   0.00000   1.000
    C181    C    0.12773   0.48334   0.92711   1.000
    C182    C    0.05919   0.42915   0.91945   1.000
    C183    C    0.03897   0.39475   0.98636   1.000
    C184    C    0.14817   0.52231   0.85470   1.000
    C185    C    0.30013   0.50455   0.85861   1.000
    C186    C    0.37001   0.46769   0.83632   1.000
    C187    C    0.35063   0.40523   0.77847   1.000
    C188    C    0.26647   0.38105   0.74900   1.000
    C189    C    0.20055   0.41875   0.77412   1.000
    C190    C    0.68689   0.87211   0.44411   1.000
    C191    C    0.73766   0.80260   0.45003   1.000
    C192    C    0.79574   0.77719   0.93711   1.000
    C193    C    0.81224   0.80476   0.01609   1.000
    C194    C    0.76684   0.77054   0.06808   1.000
    C195    C    0.70731   0.70923   0.04198   1.000
    C196    C    0.69159   0.68094   0.96336   1.000
    C197    C    0.73565   0.71609   0.91091   1.000
    C198    C    0.50151   0.50598   0.58052   1.000
    C199    C    0.55626   0.45188   0.55410   1.000
    C200    C    0.44483   0.55399   0.52471   1.000
    C201    C    0.24014   0.07718   0.34837   1.000
    C202    C    0.21301   0.15208   0.31297   1.000
    C203    C    0.27283   0.21086   0.30678   1.000
    C204    C    0.36008   0.19298   0.33424   1.000
    C205    C    0.38326   0.11539   0.36613   1.000
    C206    C    0.50582   0.23639   0.34285   1.000
    C207    C    0.52634   0.19585   0.27153   1.000
    C208    C    0.56728   0.11996   0.27694   1.000
    C209    C    0.58668   0.08478   0.20990   1.000
    C210    C    0.56591   0.12407   0.13531   1.000
    C211    C    0.52484   0.20049   0.13074   1.000
    C212    C    0.50548   0.23570   0.19747   1.000
    C213    C    0.58703   0.08700   0.06432   1.000
    C214    C    0.65633   0.03313   0.07167   1.000
    C215    C    0.67579   0.99787   0.00000   1.000
    C216    C    0.62754   0.01598   0.92835   1.000
    C217    C    0.55878   0.06994   0.92041   1.000
    C218    C    0.53860   0.10448   0.98710   1.000
    C219    C    0.64805   0.97696   0.85621   1.000
    C220    C    0.79959   0.99647   0.85932   1.000
    C221    C    0.86878   0.03413   0.83646   1.000
    C222    C    0.84835   0.09617   0.77800   1.000
    C223    C    0.76383   0.11934   0.74861   1.000
    C224    C    0.69861   0.08095   0.77436   1.000
    C225    C    0.20135   0.77525   0.44694   1.000
    C226    C    0.11281   0.78300   0.43630   1.000
    C227    C    0.06181   0.71366   0.42782   1.000
    C228    C    0.09870   0.63556   0.43186   1.000
    C229    C    0.18751   0.62770   0.44471   1.000
    C230    C    0.23824   0.69727   0.45122   1.000
    C231    C    0.29454   0.72277   0.93669   1.000
    C232    C    0.31164   0.69536   0.01586   1.000
    C233    C    0.26669   0.72971   0.06800   1.000
    C234    C    0.20702   0.79099   0.04190   1.000
    C235    C    0.19058   0.81901   0.96303   1.000
    C236    C    0.94507   0.94563   0.52499   1.000
    C237    C    0.25968   0.57689   0.65046   1.000
    C238    C    0.28688   0.65166   0.68578   1.000
    C239    C    0.22709   0.71033   0.69220   1.000
    C240    C    0.13981   0.69250   0.66500   1.000
    C241    C    0.11657   0.61504   0.63319   1.000
    C242    C    0.99408   0.73603   0.65654   1.000
    C243    C    0.97328   0.69537   0.72784   1.000
    C244    C    0.93246   0.61944   0.72270   1.000
    C245    C    0.91299   0.58424   0.78986   1.000
    C246    C    0.93359   0.62356   0.86427   1.000
    C247    C    0.97447   0.70005   0.86853   1.000
    C248    C    0.99388   0.73528   0.80170   1.000
    C249    C    0.91250   0.58656   0.93546   1.000
    C250    C    0.84330   0.53263   0.92848   1.000
    C251    C    0.82382   0.49764   0.99534   1.000
    C252    C    0.87195   0.51607   0.07193   1.000
    C253    C    0.94065   0.57003   0.07951   1.000
    C254    C    0.96086   0.60430   0.01255   1.000
    C255    C    0.85140   0.47741   0.14437   1.000
    C256    C    0.69945   0.49533   0.14041   1.000
    C257    C    0.62959   0.53252   0.16240   1.000
    C258    C    0.64889   0.59539   0.21978   1.000
    C259    C    0.73303   0.61972   0.24906   1.000
    C260    C    0.79896   0.58171   0.22421   1.000
    C261    C    0.29895   0.27545   0.55157   1.000
    C262    C    0.38738   0.28322   0.56120   1.000
    C263    C    0.43847   0.21392   0.56980   1.000
    C264    C    0.40178   0.13578   0.56663   1.000
    C265    C    0.31304   0.12789   0.55456   1.000
    C266    C    0.26225   0.19742   0.54810   1.000
    C267    C    0.12394   0.12793   0.95287   1.000
    C268    C    0.20388   0.22270   0.06061   1.000
    C269    C    0.18823   0.19442   0.98192   1.000
    C270    C    0.23429   0.22803   0.93019   1.000
    C271    C    0.29361   0.28954   0.95625   1.000
    C272    C    0.30857   0.31844   0.03463   1.000
    C273    C    0.26389   0.28382   0.08685   1.000
    C274    C    0.49736   0.49394   0.41761   1.000
    C275    C    0.44264   0.54807   0.44403   1.000
    C276    C    0.55420   0.44610   0.47346   1.000
    N277    N    0.67607   0.94005   0.62541   1.000
    N278    N    0.28093   0.98076   0.17089   1.000
    N279    N    0.82354   0.44028   0.37230   1.000
    N280    N    0.21911   0.48032   0.82792   1.000
    N281    N    0.32370   0.05984   0.37409   1.000
    N282    N    0.71820   0.01968   0.82866   1.000
    N283    N    0.17610   0.55958   0.62505   1.000
    N284    N    0.78045   0.51970   0.17091   1.000
    O285    O    0.05236   0.99269   0.12890   1.000
    O286    O    0.58432   0.74607   0.67030   1.000
    O287    O    0.44765   0.49268   0.86970   1.000
    O288    O    0.91507   0.24573   0.32941   1.000
    O289    O    0.94684   0.01028   0.86995   1.000
    O290    O    0.41502   0.25411   0.32944   1.000
    O291    O    0.12109   0.10089   0.88307   1.000
    O292    O    0.07972   0.10342   0.40000   1.000
    O293    O    0.55197   0.50740   0.12907   1.000
    O294    O    0.08497   0.75357   0.67020   1.000
loop_
    _geom_bond_atom_site_label_1
    _geom_bond_atom_site_label_2
    _geom_bond_distance
    _geom_bond_site_symmetry_2
    _ccdc_geom_bond_type
    H71    C215      1.10686      .   S
    H41    C180      1.10622      .   S
    C180   C179      1.44794      .   S
    C180   C181      1.34864  1_554   S
    C215   C214      1.46896  1_565   S
    C215   C216      1.33069  1_564   S
    C254   H107      0.89333  1_655   S
    C254   C253      1.39285      .   S
    C254   C249      1.40682  1_554   S
    C144   H13       1.08962      .   S
    C144   C143      1.39304      .   S
    C144   C139      1.40672  1_554   S
    C232   C233      1.40397      .   S
    C232   C231      1.40385  1_554   S
    C193   C194      1.40426      .   S
    C193   C192      1.40393  1_554   S
    C272   C273      1.40204      .   S
    C272   C271      1.40275  1_554   S
    C161   C162      1.40196      .   S
    C161   C160      1.40250  1_554   S
    C234   C233      1.39013      .   S
    C234   H86       1.08820      .   S
    C234   C235      1.40266  1_554   S
    C195   C194      1.39024      .   S
    C195   H56       1.08816      .   S
    C195   C196      1.40258  1_554   S
    C268   C273      1.39319      .   S
    C268   H118      1.08944      .   S
    C268   C269      1.40372  1_554   S
    C157   C162      1.39323      .   S
    C157   H24       1.08940      .   S
    C157   C158      1.40399  1_554   S
    C178   C179      1.40760      .   S
    C178   C175      1.48195      .   S
    C178   C183      1.40675  1_554   S
    C213   C214      1.40739      .   S
    C213   C210      1.48175      .   S
    C213   C218      1.40706  1_554   S
    C233   H85       1.08945      .   S
    C194   H55       1.08909      .   S
    C179   H40       1.09041      .   S
    C214   H70       1.08954      .   S
    C142   C143      1.40060      .   S
    C142   C145      1.39092  1_565   S
    C142   C141      1.39472  1_564   S
    C252   C253      1.40053      .   S
    C252   C255      1.50854      .   S
    C252   C251      1.40095  1_554   S
    H38    C176      1.09025      .   S
    H68    C211      1.09022      .   S
    C253   H106      1.09144      .   S
    C143   H12       1.09151      .   S
    C273   H121      1.08825      .   S
    C162   H27       1.08838      .   S
    H16    C146      1.14579      .   S
    H110   C256      1.08524      .   S
    O285   C147      1.31594      .   S
    O293   C257      1.31553      .   S
    C176   C175      1.41050      .   S
    C176   C177      1.39187      .   S
    C211   C210      1.41040      .   S
    C211   C212      1.39199      .   S
    H14    C145      1.45790      .   S
    H108   C255      1.09719      .   S
    C175   C174      1.40786      .   S
    C210   C209      1.40797      .   S
    C146   C147      1.38011  1_545   S
    C146   N278      1.32889  1_545   S
    C256   C257      1.41240      .   S
    C256   N284      1.34972      .   S
    C145   N278      1.37204  1_545   S
    C145   H15       1.09652      .   S
    C255   N284      1.50200      .   S
    C255   H109      1.09652      .   S
    C257   C258      1.41446      .   S
    C147   C148      1.41459      .   S
    N278   C150      1.35808      .   S
    N284   C260      1.35828      .   S
    H69    C212      1.09059      .   S
    H39    C177      1.09075  1_655   S
    C177   C172      1.40451      .   S
    C212   C207      1.40436      .   S
    C174   H37       1.09045      .   S
    C174   C173      1.39681      .   S
    C209   H67       1.09050      .   S
    C209   C208      1.39680      .   S
    C258   H111      1.09063      .   S
    C258   C259      1.39143      .   S
    C148   H17       1.09065      .   S
    C148   C149      1.39127      .   S
    C260   H113      1.08617      .   S
    C260   C259      1.38763      .   S
    C150   H19       1.08617      .   S
    C150   C149      1.38757      .   S
    C259   H112      1.08826      .   S
    C149   H18       1.08841      .   S
    C172   C173      1.40100      .   S
    C172   C171      1.50700      .   S
    C207   C208      1.40099      .   S
    C207   C206      1.50697      .   S
    C173   H36       1.09170      .   S
    C208   H66       1.09105      .   S
    H62    C203      1.09049      .   S
    H32    C168      1.09025      .   S
    H61    C202      1.08705      .   S
    H31    C167      1.08697      .   S
    C203   C202      1.38609      .   S
    C203   C204      1.40667      .   S
    C168   C167      1.38602      .   S
    C168   C169      1.40678      .   S
    C167   C166      1.39378      .   S
    C202   C201      1.39376      .   S
    O288   C169      1.35317      .   S
    O288   C171      1.45881  1_655   S
    O290   C204      1.35343      .   S
    O290   C206      1.45849      .   S
    C169   C170      1.39995      .   S
    C204   C205      1.39997      .   S
    C171   H34       1.09809      .   S
    C171   H35       1.09932      .   S
    C206   H64       1.09813      .   S
    C206   H65       1.09983      .   S
    C166   H30       1.08660      .   S
    C166   N279      1.34697      .   S
    C201   H60       1.08655      .   S
    C201   N281      1.34703      .   S
    C170   N279      1.35479      .   S
    C170   H33       1.08880      .   S
    C205   N281      1.35470      .   S
    C205   H63       1.08896      .   S
    H125   C275      1.09037      .   S
    H28    C164      1.08953      .   S
    C274   C275      1.40389      .   S
    C274   C276      1.40218      .   S
    C163   C164      1.40416  1_545   S
    C163   C165      1.40285  1_655   S
    H81    C227      1.08965  1_655   S
    H51    C92       1.08967      .   S
    C227   C228      1.40638      .   S
    C227   C226      1.39059      .   S
    C92    C93       1.40646      .   S
    C92    C91       1.39075      .   S
    C228   C229      1.40437      .   S
    C93    C190      1.40449      .   S
    H80    C226      1.08927      .   S
    H50    C91       1.08927      .   S
    C226   C225      1.40360      .   S
    C91    C90       1.40381      .   S
    C275   C200      1.39116      .   S
    C190   H52       1.09064      .   S
    C190   C191      1.39289      .   S
    C164   C236      1.39126      .   S
    C229   H82       1.09065      .   S
    C229   C230      1.39273      .   S
    C90    C191      1.40451      .   S
    C225   C230      1.40440      .   S
    C191   H53       1.08889      .   S
    C230   H83       1.08884      .   S
    H29    O292      0.88676      .   S
    H126   C276      1.08958      .   S
    C165   C124      1.39024      .   S
    C276   C199      1.39072      .   S
    C200   H59       1.08896      .   S
    C200   C198      1.40215      .   S
    C236   H89       1.08906      .   S
    C236   C123      1.40236  1_655   S
    H23    C156      1.08885      .   S
    H117   C266      1.08891      .   S
    C156   C151      1.40441      .   S
    C156   C155      1.39281      .   S
    C266   C261      1.40455      .   S
    C266   C265      1.39282      .   S
    H22    C155      1.09064      .   S
    H116   C265      1.09062      .   S
    C151   C152      1.40381      .   S
    C261   C262      1.40389      .   S
    C155   C154      1.40435      .   S
    C124   C123      1.40400  1_545   S
    C124   H88       1.08968      .   S
    C199   C198      1.40388      .   S
    C199   H58       1.08949      .   S
    C265   C264      1.40451      .   S
    C262   H114      1.08912      .   S
    C262   C263      1.39066      .   S
    C152   H20       1.08919      .   S
    C152   C153      1.39054      .   S
    C154   C153      1.40637      .   S
    C264   C263      1.40646      .   S
    C263   H115      1.08961      .   S
    C153   H21       0.98493  1_655   S
    H99    C242      1.09983      .   S
    H5     C132      1.09986      .   S
    H97    C241      1.08900      .   S
    H3     C131      1.08897      .   S
    N283   C241      1.35490      .   S
    N283   C237      1.34697      .   S
    N277   C131      1.35478      .   S
    N277   C127      1.34697      .   S
    C241   C240      1.39981      .   S
    C131   C130      1.39997      .   S
    H94    C237      1.08661      .   S
    H0     C127      1.08655      .   S
    H98    C242      1.09816      .   S
    H4     C132      1.09809      .   S
    C237   C238      1.39375      .   S
    C127   C128      1.39382      .   S
    C242   O294      1.45902  1_655   S
    C242   C243      1.50697      .   S
    C132   O286      1.45847      .   S
    C132   C133      1.50686      .   S
    C240   O294      1.35372      .   S
    C240   C239      1.40690      .   S
    C130   O286      1.35331      .   S
    C130   C129      1.40675      .   S
    H100   C244      1.09176      .   S
    H6     C134      1.09176      .   S
    C238   C239      1.38597      .   S
    C238   H95       1.08698      .   S
    C128   C129      1.38604      .   S
    C128   H1        1.08705      .   S
    C239   H96       1.09012      .   S
    C129   H2        1.09011      .   S
    H78    C223      1.08838      .   S
    H48    C188      1.08848      .   S
    C244   C243      1.40107      .   S
    C244   C245      1.39705      .   S
    C134   C133      1.40099      .   S
    C134   C135      1.39677      .   S
    C243   C248      1.40425      .   S
    C133   C138      1.40438      .   S
    C223   C224      1.38756      .   S
    C223   C222      1.39138      .   S
    C188   C189      1.38757      .   S
    C188   C187      1.39140      .   S
    H49    C189      1.08618      .   S
    H79    C224      1.08609      .   S
    H77    C222      1.09055      .   S
    H47    C187      1.09065      .   S
    C189   N280      1.35829      .   S
    C224   N282      1.35827      .   S
    C222   C221      1.41486      .   S
    C187   C186      1.41492      .   S
    H101   C245      1.09049      .   S
    H7     C135      1.09050      .   S
    C245   C246      1.40794      .   S
    C135   C136      1.40793      .   S
    C248   H103      1.09073  1_655   S
    C248   C247      1.39183      .   S
    C138   H9        1.09061      .   S
    C138   C137      1.39113      .   S
    H45    C184      1.09596      .   S
    H75    C219      1.09657      .   S
    N280   C184      1.50167      .   S
    N280   C185      1.34986      .   S
    N282   C219      1.50200  1_545   S
    N282   C220      1.34979  1_545   S
    C186   C185      1.41280      .   S
    C186   O287      1.31543      .   S
    C221   C220      1.41244  1_545   S
    C221   O289      1.31531      .   S
    H87    C122      1.08853      .   S
    H57    C197      1.08834      .   S
    C184   H44       1.09733      .   S
    C184   C181      1.50946      .   S
    C219   H74       1.09706      .   S
    C219   C216      1.50843  1_565   S
    C185   H46       1.08509      .   S
    C220   H76       1.08499      .   S
    H42    C182      1.09132      .   S
    H72    C217      1.09139      .   S
    C246   C247      1.41035      .   S
    C246   C249      1.48185      .   S
    C136   C137      1.41042      .   S
    C136   C139      1.48164      .   S
    C247   H102      1.09012      .   S
    C137   H8        1.09119      .   S
    H119   C270      1.08920      .   S
    H25    C159      1.08907      .   S
    H10    C140      1.08968      .   S
    H104   C250      1.08967      .   S
    O291   C267      1.27753      .   S
    H84    C231      1.08950      .   S
    H54    C192      1.08942      .   S
    C122   C231      1.39362      .   S
    C122   C235      1.40212      .   S
    C197   C192      1.39355      .   S
    C197   C196      1.40213      .   S
    H120   C271      1.08830      .   S
    H26    C160      1.08910      .   S
    C182   C181      1.40066      .   S
    C182   C183      1.39305      .   S
    C217   C216      1.40061      .   S
    C217   C218      1.39248      .   S
    C140   C139      1.40741      .   S
    C140   C141      1.37837  1_565   S
    C250   C249      1.40746      .   S
    C250   C251      1.39108      .   S
    C270   C271      1.39042      .   S
    C270   C269      1.40412      .   S
    C159   C160      1.39011      .   S
    C159   C158      1.40393      .   S
    C267   C269      1.50721      .   S
    H43    C183      1.08960  1_655   S
    H73    C218      1.08962      .   S
    H11    C141      1.10855      .   S
    H105   C251      1.08904      .   S
