# CIF file generated by openbabel 2.4.90, see http://openbabel.sf.net
data_I
_chemical_name_common ''
_cell_length_a 16.152
_cell_length_b 16.386
_cell_length_c 17.297
_cell_angle_alpha 89.875
_cell_angle_beta 103.749
_cell_angle_gamma 90.013
_space_group_name_H-M_alt 'P 1'
_space_group_name_Hall 'P 1'
loop_
    _symmetry_equiv_pos_as_xyz
    x,y,z
loop_
    _atom_site_label
    _atom_site_type_symbol
    _atom_site_fract_x
    _atom_site_fract_y
    _atom_site_fract_z
    _atom_site_occupancy
    Zn0     Zn   0.94858   0.98950   0.17434   1.000
    Zn1     Zn   0.86458   0.54171   0.43691   1.000
    Zn2     Zn   0.55096   0.48970   0.82359   1.000
    Zn3     Zn   0.36481   0.95850   0.43964   1.000
    Zn4     Zn   0.04937   0.01042   0.82330   1.000
    Zn5     Zn   0.13513   0.45837   0.55988   1.000
    Zn6     Zn   0.44806   0.51019   0.17398   1.000
    Zn7     Zn   0.00001   0.00028   0.99967   1.000
    Zn8     Zn   0.49996   0.50005   0.99957   1.000
    Zn9     Zn   0.63525   0.04147   0.55990   1.000
    C10     C    0.12902   0.88814   0.93705   1.000
    C11     C    0.00269   0.98750   0.66730   1.000
    C12     C    0.74470   0.14989   0.54913   1.000
    C13     C    0.95776   0.43749   0.57408   1.000
    C14     C    0.62325   0.37134   0.95317   1.000
    C15     C    0.86933   0.11176   0.06180   1.000
    C16     C    0.99673   0.01233   0.33103   1.000
    C17     C    0.75431   0.64963   0.44797   1.000
    C18     C    0.54106   0.93720   0.42356   1.000
    C19     C    0.87656   0.87118   0.04530   1.000
    C20     C    0.63031   0.61167   0.93747   1.000
    C21     C    0.50340   0.51307   0.66729   1.000
    C22     C    0.25479   0.85019   0.44948   1.000
    C23     C    0.04170   0.56253   0.42286   1.000
    C24     C    0.37609   0.62896   0.04517   1.000
    C25     C    0.24554   0.35042   0.54919   1.000
    C26     C    0.45890   0.06280   0.57561   1.000
    C27     C    0.36958   0.38783   0.06060   1.000
    C28     C    0.49562   0.48648   0.33087   1.000
    O29     O    0.77754   0.07973   0.55321   1.000
    O30     O    0.66446   0.15973   0.54721   1.000
    O31     O    0.03547   0.42725   0.61041   1.000
    O32     O    0.92805   0.50710   0.54644   1.000
    O33     O    0.90273   0.08012   0.00980   1.000
    O34     O    0.88206   0.08943   0.13485   1.000
    O35     O    0.61837   0.39621   0.88217   1.000
    O36     O    0.58098   0.39799   0.00106   1.000
    O37     O    0.03796   0.06726   0.30627   1.000
    O38     O    0.95053   0.95871   0.28420   1.000
    O39     O    0.72218   0.57944   0.44675   1.000
    O40     O    0.83378   0.65969   0.44671   1.000
    O41     O    0.46330   0.92704   0.38742   1.000
    O42     O    0.57068   0.00680   0.45094   1.000
    O43     O    0.59684   0.58029   0.98978   1.000
    O44     O    0.61760   0.58931   0.86460   1.000
    O45     O    0.88159   0.89589   0.11630   1.000
    O46     O    0.91873   0.89800   0.99729   1.000
    O47     O    0.46268   0.56807   0.69244   1.000
    O48     O    0.54950   0.45907   0.71390   1.000
    O49     O    0.22230   0.92037   0.44694   1.000
    O50     O    0.33475   0.84029   0.45022   1.000
    O51     O    0.96408   0.57278   0.38620   1.000
    O52     O    0.07121   0.49287   0.45049   1.000
    O53     O    0.09688   0.92026   0.98981   1.000
    O54     O    0.11471   0.90968   0.86378   1.000
    O55     O    0.38131   0.60419   0.11620   1.000
    O56     O    0.41814   0.60217   0.99715   1.000
    O57     O    0.96179   0.93270   0.69274   1.000
    O58     O    0.04872   0.04151   0.71367   1.000
    O59     O    0.27767   0.42059   0.55010   1.000
    O60     O    0.16599   0.34041   0.55010   1.000
    O61     O    0.53664   0.07304   0.61175   1.000
    O62     O    0.42934   0.99307   0.54849   1.000
    O63     O    0.40309   0.41946   0.00844   1.000
    O64     O    0.38207   0.41018   0.13344   1.000
    O65     O    0.53825   0.43262   0.30650   1.000
    O66     O    0.44777   0.53887   0.28360   1.000
    Ts67    Ts   0.98318   0.99056   0.15919   1.000
    Ts68    Ts   0.85090   0.50790   0.41537   1.000
    Ts69    Ts   0.51653   0.49069   0.83896   1.000
    Ts70    Ts   0.35111   0.99228   0.41779   1.000
    Ts71    Ts   0.01519   0.01038   0.83885   1.000
    Ts72    Ts   0.07328   0.04058   0.84322   1.000
    Ts73    Ts   0.14879   0.49210   0.58160   1.000
    Ts74    Ts   0.48270   0.50926   0.15901   1.000
    Ts75    Ts   0.01746   0.99775   0.04275   1.000
    Ts76    Ts   0.98229   0.00361   0.95643   1.000
    Ts77    Ts   0.48252   0.49760   0.95628   1.000
    Ts78    Ts   0.51730   0.50250   0.04274   1.000
    Ts79    Ts   0.64886   0.00766   0.58174   1.000
    Og80    Og   0.14954   0.86510   0.94571   1.000
    Og81    Og   0.00220   0.98971   0.63838   1.000
    Og82    Og   0.76250   0.17486   0.54982   1.000
    Og83    Og   0.93876   0.41315   0.57122   1.000
    Og84    Og   0.64469   0.34919   0.96298   1.000
    Og85    Og   0.84894   0.13486   0.05311   1.000
    Og86    Og   0.99720   0.00995   0.35992   1.000
    Og87    Og   0.73653   0.67461   0.44739   1.000
    Og88    Og   0.56010   0.91286   0.42644   1.000
    Og89    Og   0.85512   0.84904   0.03556   1.000
    Og90    Og   0.65073   0.63476   0.94610   1.000
    Og91    Og   0.50277   0.51070   0.63837   1.000
    Og92    Og   0.23698   0.82521   0.44863   1.000
    Og93    Og   0.06070   0.58687   0.42586   1.000
    Og94    Og   0.35461   0.65110   0.03540   1.000
    Og95    Og   0.26335   0.32543   0.54998   1.000
    Og96    Og   0.43986   0.08712   0.57262   1.000
    Og97    Og   0.34924   0.36470   0.05194   1.000
    Og98    Og   0.49620   0.48897   0.35978   1.000
loop_
    _geom_bond_atom_site_label_1
    _geom_bond_atom_site_label_2
    _geom_bond_distance
    _geom_bond_site_symmetry_2
    _ccdc_geom_bond_type
    O36    C14       1.27022  1_554   S
    O36    Zn8       2.12018  1_554   S
    O63    C27       1.26702      .   S
    O63    Zn8       2.08042  1_554   S
    O33    C15       1.26559      .   S
    O33    Zn7       2.08421  1_654   S
    C24    O55       1.27671      .   S
    C24    O56       1.27033  1_554   S
    C19    O45       1.27809      .   S
    C19    O46       1.27040  1_554   S
    C27    O64       1.28193      .   S
    C15    O34       1.28345      .   S
    O55    Zn6       2.00390      .   S
    O45    Zn0       2.00535      .   S
    O64    Zn6       1.99061      .   S
    O34    Zn0       1.98727  1_545   S
    Zn6    O66       1.95559      .   S
    Zn0    O38       1.95806      .   S
    O66    C28       1.30385      .   S
    O38    C16       1.30398  1_565   S
    O37    C16       1.25330  1_455   S
    O65    C28       1.25321      .   S
    O51    C23       1.27422  1_655   S
    O51    Zn1       2.06861      .   S
    O41    C18       1.27394      .   S
    O41    Zn3       2.07310      .   S
    C23    O52       1.28380      .   S
    C18    O42       1.28393  1_565   S
    Zn1    O40       2.01391      .   S
    Zn1    O32       2.00855      .   S
    Zn3    O50       2.01536      .   S
    Zn3    O62       2.00588      .   S
    O40    C17       1.29933      .   S
    O39    C17       1.25985      .   S
    O49    C22       1.26053      .   S
    C22    O50       1.29878      .   S
    O52    Zn5       2.00815      .   S
    O42    Zn9       2.00814      .   S
    O32    C13       1.28393      .   S
    O30    C12       1.29857      .   S
    O30    Zn9       2.01812      .   S
    O62    C26       1.28417  1_565   S
    C12    O29       1.26107      .   S
    C25    O59       1.25999      .   S
    C25    O60       1.29907      .   S
    O60    Zn5       2.01364      .   S
    Zn5    O31       2.06910      .   S
    Zn9    O61       2.07131      .   S
    C13    O31       1.27408  1_655   S
    C26    O61       1.27386      .   S
    C21    O47       1.25376      .   S
    C21    O48       1.30355      .   S
    C11    O57       1.25404  1_455   S
    C11    O58       1.30332  1_565   S
    O58    Zn4       1.96005      .   S
    O48    Zn2       1.95834      .   S
    Zn4    O54       1.99339  1_545   S
    Zn2    O44       1.99184      .   S
    Zn2    O35       2.00709      .   S
    O54    C10       1.28180      .   S
    O44    C20       1.28221      .   S
    O35    C14       1.27757      .   S
    C10    O53       1.26752      .   S
    C20    O43       1.26709      .   S
    O43    Zn8       2.08096      .   S
    O53    Zn7       2.07978  1_565   S
    O56    Zn8       2.12663      .   S
    O46    Zn7       2.12313  1_665   S
    Zn0    Ts67      0.67134      .   S
    Zn1    Ts68      0.67545      .   S
    Zn2    Ts69      0.67130      .   S
    Zn3    Ts70      0.67643      .   S
    Zn4    Ts71      0.66905      .   S
    Zn4    Ts72      0.67040      .   S
    Zn5    Ts73      0.67595      .   S
    Zn6    Ts74      0.67019      .   S
    Zn7    Ts75      0.73238  1_546   S
    Zn7    Ts76      0.73646  1_455   S
    Zn8    Ts77      0.73587      .   S
    Zn8    Ts78      0.73366  1_556   S
    Zn9    Ts79      0.67642      .   S
    C10    Og80      0.50107      .   S
    C11    Og81      0.49958      .   S
    C12    Og82      0.49851      .   S
    C13    Og83      0.49858      .   S
    C14    Og84      0.50224      .   S
    C15    Og85      0.50061      .   S
    C16    Og86      0.49939      .   S
    C17    Og87      0.49872      .   S
    C18    Og88      0.49869      .   S
    C19    Og89      0.50237      .   S
    C20    Og90      0.50105      .   S
    C21    Og91      0.49956      .   S
    C22    Og92      0.49849      .   S
    C23    Og93      0.49849      .   S
    C24    Og94      0.50239      .   S
    C25    Og95      0.49870      .   S
    C26    Og96      0.49857      .   S
    C27    Og97      0.50078      .   S
    C28    Og98      0.49973      .   S
