# CIF file generated by openbabel 2.4.90, see http://openbabel.sf.net
data_I
_chemical_name_common ''
_cell_length_a 16.152
_cell_length_b 16.386
_cell_length_c 17.297
_cell_angle_alpha 89.875
_cell_angle_beta 103.749
_cell_angle_gamma 90.013
_space_group_name_H-M_alt 'P 1'
_space_group_name_Hall 'P 1'
loop_
    _symmetry_equiv_pos_as_xyz
    x,y,z
loop_
    _atom_site_label
    _atom_site_type_symbol
    _atom_site_fract_x
    _atom_site_fract_y
    _atom_site_fract_z
    _atom_site_occupancy
    C0      C    0.12902   0.88814   0.93705   1.000
    C1      C    0.00269   0.98750   0.66730   1.000
    C2      C    0.74470   0.14989   0.54913   1.000
    C3      C    0.95776   0.43749   0.57408   1.000
    C4      C    0.62325   0.37134   0.95317   1.000
    C5      C    0.86933   0.11176   0.06180   1.000
    C6      C    0.99673   0.01233   0.33103   1.000
    C7      C    0.75431   0.64963   0.44797   1.000
    C8      C    0.54106   0.93720   0.42356   1.000
    C9      C    0.87656   0.87118   0.04530   1.000
    C10     C    0.63031   0.61167   0.93747   1.000
    C11     C    0.50340   0.51307   0.66729   1.000
    C12     C    0.25479   0.85019   0.44948   1.000
    C13     C    0.04170   0.56253   0.42286   1.000
    C14     C    0.37609   0.62896   0.04517   1.000
    C15     C    0.24554   0.35042   0.54919   1.000
    C16     C    0.45890   0.06280   0.57561   1.000
    C17     C    0.36958   0.38783   0.06060   1.000
    C18     C    0.49562   0.48648   0.33087   1.000
