# CIF file generated by openbabel 2.4.90, see http://openbabel.sf.net
data_I
_chemical_name_common ''
_cell_length_a 13.926
_cell_length_b 15.054
_cell_length_c 15.041
_cell_angle_alpha 117.175
_cell_angle_beta 96.398
_cell_angle_gamma 96.64
_space_group_name_H-M_alt 'P 1'
_space_group_name_Hall 'P 1'
loop_
    _symmetry_equiv_pos_as_xyz
    x,y,z
loop_
    _atom_site_label
    _atom_site_type_symbol
    _atom_site_fract_x
    _atom_site_fract_y
    _atom_site_fract_z
    _atom_site_occupancy
    Zr0     Zr   0.14540   0.62739   0.33536   1.000
    Zr1     Zr   0.35465   0.66500   0.37232   1.000
    Zr2     Zr   0.85463   0.37262   0.66460   1.000
    Zr3     Zr   0.64538   0.33502   0.62767   1.000
    O4      O    0.25002   0.64620   0.35384   1.000
    O5      O    0.75000   0.35382   0.64613   1.000
    N6      N    0.24997   0.35339   0.64678   1.000
    O7      O    0.08903   0.36281   0.65559   1.000
    O8      O    0.41093   0.34436   0.63745   1.000
    N9      N    0.24443   0.64073   0.85150   1.000
    O10     O    0.20447   0.64546   0.63154   1.000
    O11     O    0.29828   0.65834   0.64933   1.000
    O12     O    0.29011   0.64512   0.07358   1.000
    O13     O    0.19614   0.62368   0.05648   1.000
    N14     N    0.75559   0.35930   0.14849   1.000
    O15     O    0.79555   0.35456   0.36845   1.000
    O16     O    0.70174   0.34168   0.35066   1.000
    O17     O    0.80389   0.37634   0.94350   1.000
    O18     O    0.70992   0.35490   0.92641   1.000
    N19     N    0.74976   0.64663   0.35320   1.000
    O20     O    0.91085   0.63721   0.34439   1.000
    O21     O    0.58895   0.65566   0.36254   1.000
    N22     N    0.74452   0.85159   0.64089   1.000
    O23     O    0.79016   0.07392   0.64552   1.000
    O24     O    0.69619   0.05649   0.62426   1.000
    O25     O    0.70452   0.63132   0.64525   1.000
    O26     O    0.79833   0.64938   0.65789   1.000
    N27     N    0.25550   0.14843   0.35910   1.000
    O28     O    0.29550   0.36870   0.35474   1.000
    O29     O    0.30383   0.94352   0.37573   1.000
    O30     O    0.20169   0.35064   0.34210   1.000
    O31     O    0.20987   0.92610   0.35446   1.000
loop_
    _geom_bond_atom_site_label_1
    _geom_bond_atom_site_label_2
    _geom_bond_distance
    _geom_bond_site_symmetry_2
    _ccdc_geom_bond_type
    Zr0    O4        1.42219      .   S
    Zr1    O4        1.42219      .   S
    Zr2    O5        1.42220      .   S
    Zr3    O5        1.42220      .   S
    N6     O7        2.27678      .   S
    Zr2    O7        3.29967  1_655   S
    N6     O8        2.27723      .   S
    Zr3    O8        3.30082      .   S
    N9     O10       3.32791      .   S
    Zr0    O10       4.31515      .   S
    N9     O11       3.32835      .   S
    Zr1    O11       4.36790      .   S
    N9     O12       3.29870  1_556   S
    Zr1    O12       4.34708      .   S
    N9     O13       3.34203  1_556   S
    Zr0    O13       4.30721      .   S
    N14    O15       3.32783      .   S
    Zr2    O15       4.31483      .   S
    N14    O16       3.32836      .   S
    Zr3    O16       4.36792      .   S
    N14    O17       3.34211  1_554   S
    Zr2    O17       4.30755      .   S
    N14    O18       3.29868  1_554   S
    Zr3    O18       4.34706      .   S
    N19    O20       2.27881      .   S
    Zr0    O20       3.30174  1_455   S
    N19    O21       2.27522      .   S
    Zr1    O21       3.29880      .   S
    N22    O23       3.30091  1_565   S
    Zr2    O23       4.35187      .   S
    N22    O24       3.34325  1_565   S
    Zr3    O24       4.31063      .   S
    N22    O25       3.33013      .   S
    Zr3    O25       4.32083      .   S
    N22    O26       3.33003      .   S
    Zr2    O26       4.37088      .   S
    N27    O28       3.33012      .   S
    Zr1    O28       4.32081      .   S
    N27    O29       3.34327  1_545   S
    Zr1    O29       4.31066      .   S
    N27    O30       3.33006      .   S
    Zr0    O30       4.37101      .   S
    N27    O31       3.30088  1_545   S
    Zr0    O31       4.35172      .   S
