# CIF file generated by openbabel 2.4.90, see http://openbabel.sf.net
data_I
_chemical_name_common ''
_cell_length_a 13.926
_cell_length_b 15.054
_cell_length_c 15.041
_cell_angle_alpha 117.175
_cell_angle_beta 96.398
_cell_angle_gamma 96.64
_space_group_name_H-M_alt 'P 1'
_space_group_name_Hall 'P 1'
loop_
    _symmetry_equiv_pos_as_xyz
    x,y,z
loop_
    _atom_site_label
    _atom_site_type_symbol
    _atom_site_fract_x
    _atom_site_fract_y
    _atom_site_fract_z
    _atom_site_occupancy
    C0      C    0.14540   0.62739   0.33536   1.000
    C1      C    0.35465   0.66500   0.37232   1.000
    C2      C    0.85463   0.37262   0.66460   1.000
    C3      C    0.64538   0.33502   0.62767   1.000
    C4      C    0.37810   0.64132   0.05753   1.000
    C5      C    0.00000   0.59915   0.45810   1.000
    C6      C    0.97887   0.65657   0.21313   1.000
    C7      C    0.83081   0.61071   0.47479   1.000
    C8      C    0.40610   0.66337   0.88516   1.000
    C9      C    0.03449   0.60599   0.80491   1.000
    C10     C    0.80205   0.67060   0.21871   1.000
    C11     C    0.39893   0.68573   0.70850   1.000
    C12     C    0.12179   0.94151   0.35752   1.000
    C13     C    0.49323   0.54196   0.40023   1.000
    C14     C    0.52235   0.78717   0.34335   1.000
    C15     C    0.66813   0.52489   0.38864   1.000
    C16     C    0.09379   0.11403   0.33631   1.000
    C17     C    0.46545   0.19584   0.39389   1.000
    C18     C    0.69917   0.78127   0.32938   1.000
    C19     C    0.10097   0.29109   0.31491   1.000
    C20     C    0.62192   0.35870   0.94246   1.000
    C21     C    0.99422   0.40087   0.54189   1.000
    C22     C    0.02116   0.34345   0.78680   1.000
    C23     C    0.16922   0.38931   0.52520   1.000
    C24     C    0.59392   0.33665   0.11483   1.000
    C25     C    0.96553   0.39403   0.19508   1.000
    C26     C    0.19797   0.32942   0.78120   1.000
    C27     C    0.60109   0.31430   0.29149   1.000
    C28     C    0.87823   0.05851   0.64247   1.000
    C29     C    0.50680   0.45806   0.59976   1.000
    C30     C    0.47767   0.21284   0.65664   1.000
    C31     C    0.33189   0.47513   0.61135   1.000
    C32     C    0.90623   0.88599   0.66369   1.000
    C33     C    0.53457   0.80418   0.60610   1.000
    C34     C    0.30085   0.21875   0.67061   1.000
    C35     C    0.89905   0.70893   0.68509   1.000
    C36     C    0.22542   0.60859   0.06534   1.000
    C37     C    0.30152   0.62798   0.02251   1.000
    C38     C    0.95755   0.61475   0.40696   1.000
    C39     C    0.80185   0.64315   0.34863   1.000
    C40     C    0.94276   0.64821   0.27026   1.000
    C41     C    0.26936   0.63182   0.93080   1.000
    C42     C    0.17274   0.63953   0.76230   1.000
    C43     C    0.25117   0.67085   0.63507   1.000
    C44     C    0.23210   0.60876   0.16440   1.000
    C45     C    0.16371   0.61510   0.90671   1.000
    C46     C    0.86020   0.62108   0.41536   1.000
    C47     C    0.32599   0.65109   0.86796   1.000
    C48     C    0.32038   0.67281   0.70852   1.000
    C49     C    0.11456   0.61886   0.82270   1.000
    C50     C    0.84492   0.65646   0.27449   1.000
    C51     C    0.27843   0.65522   0.78320   1.000
    C52     C    0.26390   0.67858   0.54224   1.000
    C53     C    0.27448   0.93421   0.39009   1.000
    C54     C    0.19837   0.97683   0.37093   1.000
    C55     C    0.54196   0.59307   0.38476   1.000
    C56     C    0.69824   0.65119   0.35654   1.000
    C57     C    0.55797   0.72991   0.35161   1.000
    C58     C    0.23053   0.06881   0.36754   1.000
    C59     C    0.32719   0.23804   0.36066   1.000
    C60     C    0.24876   0.36529   0.33012   1.000
    C61     C    0.26784   0.83508   0.38960   1.000
    C62     C    0.33620   0.09335   0.38433   1.000
    C63     C    0.63925   0.58446   0.37841   1.000
    C64     C    0.17392   0.13157   0.34863   1.000
    C65     C    0.17954   0.29139   0.32778   1.000
    C66     C    0.38537   0.17766   0.38098   1.000
    C67     C    0.65581   0.72551   0.34340   1.000
    C68     C    0.22149   0.21669   0.34491   1.000
    C69     C    0.23607   0.45824   0.32285   1.000
    C70     C    0.77461   0.39143   0.93465   1.000
    C71     C    0.69850   0.37204   0.97748   1.000
    C72     C    0.04247   0.38527   0.59303   1.000
    C73     C    0.19818   0.35687   0.65130   1.000
    C74     C    0.05727   0.35181   0.72973   1.000
    C75     C    0.73066   0.36821   0.06919   1.000
    C76     C    0.82728   0.36050   0.23770   1.000
    C77     C    0.74885   0.32918   0.36493   1.000
    C78     C    0.76793   0.39125   0.83559   1.000
    C79     C    0.83631   0.38493   0.09328   1.000
    C80     C    0.13982   0.37894   0.58464   1.000
    C81     C    0.67404   0.34894   0.13204   1.000
    C82     C    0.67964   0.32722   0.29147   1.000
    C83     C    0.88546   0.38116   0.17723   1.000
    C84     C    0.15510   0.34356   0.72551   1.000
    C85     C    0.72159   0.34481   0.21679   1.000
    C86     C    0.73613   0.32144   0.45775   1.000
    C87     C    0.72555   0.06581   0.60990   1.000
    C88     C    0.80165   0.02319   0.62906   1.000
    C89     C    0.45807   0.40695   0.61523   1.000
    C90     C    0.30178   0.34883   0.64345   1.000
    C91     C    0.44206   0.27011   0.64838   1.000
    C92     C    0.76949   0.93121   0.63240   1.000
    C93     C    0.67284   0.76198   0.63934   1.000
    C94     C    0.75127   0.63473   0.66988   1.000
    C95     C    0.73219   0.16493   0.61036   1.000
    C96     C    0.66382   0.90667   0.61566   1.000
    C97     C    0.36078   0.41556   0.62158   1.000
    C98     C    0.82611   0.86845   0.65137   1.000
    C99     C    0.82049   0.70863   0.67222   1.000
    C100    C    0.61465   0.82236   0.61900   1.000
    C101    C    0.34422   0.27451   0.65659   1.000
    C102    C    0.77854   0.78333   0.65509   1.000
    C103    C    0.76395   0.54178   0.67715   1.000
    C104    C    0.13053   0.64828   0.65372   1.000
    C105    C    0.10956   0.59228   0.99504   1.000
    C106    C    0.36941   0.34702   0.35246   1.000
    C107    C    0.39033   0.00505   0.40669   1.000
    C108    C    0.86949   0.35175   0.34628   1.000
    C109    C    0.89046   0.40774   0.00496   1.000
    C110    C    0.63062   0.65299   0.64753   1.000
    C111    C    0.60969   0.99496   0.59330   1.000
    C112    C    0.99849   0.62819   0.33581   1.000
    C113    C    0.50162   0.66436   0.37144   1.000
    C114    C    0.00154   0.37183   0.66418   1.000
    C115    C    0.49841   0.33565   0.62855   1.000
    C116    C    0.34963   0.68692   0.52202   1.000
    C117    C    0.15029   0.58586   0.18758   1.000
    C118    C    0.18364   0.67301   0.48779   1.000
    C119    C    0.31692   0.63402   0.21899   1.000
    C120    C    0.15037   0.47832   0.31485   1.000
    C121    C    0.34968   0.81225   0.41239   1.000
    C122    C    0.31637   0.51294   0.32845   1.000
    C123    C    0.18307   0.78014   0.36430   1.000
    C124    C    0.65040   0.31310   0.47797   1.000
    C125    C    0.84974   0.41414   0.81241   1.000
    C126    C    0.81639   0.32703   0.51221   1.000
    C127    C    0.68310   0.36600   0.78100   1.000
    C128    C    0.84966   0.52171   0.68516   1.000
    C129    C    0.65034   0.18777   0.58760   1.000
    C130    C    0.68365   0.48708   0.67154   1.000
    C131    C    0.81696   0.21987   0.63569   1.000
    O132    O    0.86338   0.39633   0.04912   1.000
    O133    O    0.83253   0.39958   0.96981   1.000
    O134    O    0.33981   0.63465   0.04002   1.000
    O135    O    0.26347   0.61828   0.04392   1.000
    O136    O    0.28544   0.62990   0.97666   1.000
    O137    O    0.22876   0.60867   0.11487   1.000
    O138    O    0.16749   0.60043   0.03019   1.000
    O139    O    0.78348   0.37657   0.08124   1.000
    O140    O    0.70235   0.35857   0.10061   1.000
    O141    O    0.71458   0.37012   0.02334   1.000
    O142    O    0.86089   0.38304   0.13525   1.000
    O143    O    0.63398   0.34280   0.12343   1.000
    O144    O    0.69781   0.34687   0.17441   1.000
    O145    O    0.19119   0.59731   0.17599   1.000
    O146    O    0.27451   0.62139   0.19170   1.000
    O147    O    0.92550   0.38760   0.18616   1.000
    O148    O    0.85637   0.37083   0.20747   1.000
    O149    O    0.14785   0.60663   0.26147   1.000
    O150    O    0.96081   0.65239   0.24170   1.000
    O151    O    0.77443   0.35265   0.22725   1.000
    O152    O    0.70061   0.33601   0.25413   1.000
    O153    O    0.82349   0.66353   0.24660   1.000
    O154    O    0.33578   0.64951   0.29566   1.000
    O155    O    0.84839   0.35612   0.29199   1.000
    O156    O    0.89384   0.65233   0.27237   1.000
    O157    O    0.97062   0.63820   0.30303   1.000
    O158    O    0.82339   0.64980   0.31156   1.000
    O159    O    0.64037   0.32076   0.29148   1.000
    O160    O    0.71425   0.32820   0.32820   1.000
    O161    O    0.19322   0.46828   0.31885   1.000
    O162    O    0.14789   0.55285   0.32511   1.000
    O163    O    0.14026   0.29124   0.32135   1.000
    O164    O    0.27622   0.48559   0.32565   1.000
    O165    O    0.24242   0.41177   0.32649   1.000
    O166    O    0.21415   0.32834   0.32895   1.000
    O167    O    0.20051   0.25404   0.33635   1.000
    O168    O    0.33551   0.58897   0.35039   1.000
    O169    O    0.67749   0.75339   0.33639   1.000
    O170    O    0.30908   0.35616   0.34129   1.000
    O171    O    0.07194   0.62779   0.33558   1.000
    O172    O    0.16424   0.70377   0.34983   1.000
    O173    O    0.16452   0.65020   0.41158   1.000
    O174    O    0.97802   0.62147   0.37138   1.000
    O175    O    0.13385   0.12280   0.34247   1.000
    O176    O    0.54016   0.75854   0.34748   1.000
    O177    O    0.60689   0.72771   0.34750   1.000
    O178    O    0.67702   0.68835   0.34997   1.000
    O179    O    0.19770   0.17413   0.34677   1.000
    O180    O    0.27434   0.22736   0.35279   1.000
    O181    O    0.80917   0.34046   0.35560   1.000
    O182    O    0.20223   0.10019   0.35808   1.000
    O183    O    0.75005   0.64717   0.35259   1.000
    O184    O    0.83103   0.63211   0.38199   1.000
    O185    O    0.52979   0.69714   0.36152   1.000
    O186    O    0.34830   0.29253   0.35656   1.000
    O187    O    0.66875   0.61782   0.36747   1.000
    O188    O    0.16008   0.95917   0.36422   1.000
    O189    O    0.35628   0.20785   0.37082   1.000
    O190    O    0.22545   0.80761   0.37695   1.000
    O191    O    0.74249   0.32531   0.41134   1.000
    O192    O    0.21445   0.02282   0.36924   1.000
    O193    O    0.28337   0.08108   0.37593   1.000
    O194    O    0.23642   0.95552   0.38051   1.000
    O195    O    0.42813   0.66468   0.37188   1.000
    O196    O    0.52179   0.62872   0.37810   1.000
    O197    O    0.35216   0.73862   0.39236   1.000
    O198    O    0.35214   0.67596   0.44717   1.000
    O199    O    0.59060   0.58876   0.38159   1.000
    O200    O    0.65369   0.55468   0.38353   1.000
    O201    O    0.36078   0.13550   0.38265   1.000
    O202    O    0.42541   0.18675   0.38743   1.000
    O203    O    0.36326   0.04920   0.39551   1.000
    O204    O    0.51759   0.56752   0.39249   1.000
    O205    O    0.27116   0.88465   0.38984   1.000
    O206    O    0.30876   0.82367   0.40099   1.000
    O207    O    0.33240   0.96963   0.39839   1.000
    O208    O    0.90888   0.61791   0.41116   1.000
    O209    O    0.97878   0.60695   0.43253   1.000
    O210    O    0.84551   0.61590   0.44507   1.000
    O211    O    0.69326   0.31727   0.46786   1.000
    O212    O    0.77626   0.32423   0.48498   1.000
    O213    O    0.64789   0.32406   0.55282   1.000
    O214    O    0.22377   0.67580   0.51502   1.000
    O215    O    0.83551   0.34983   0.58841   1.000
    O216    O    0.30676   0.68275   0.53213   1.000
    O217    O    0.15452   0.38413   0.55492   1.000
    O218    O    0.01835   0.39307   0.56746   1.000
    O219    O    0.25753   0.67472   0.58866   1.000
    O220    O    0.09115   0.38211   0.58883   1.000
    O221    O    0.16900   0.36791   0.61797   1.000
    O222    O    0.69127   0.17635   0.59898   1.000
    O223    O    0.64786   0.26139   0.60764   1.000
    O224    O    0.02201   0.37855   0.62860   1.000
    O225    O    0.66762   0.03039   0.60160   1.000
    O226    O    0.63676   0.95082   0.60448   1.000
    O227    O    0.48243   0.43250   0.60750   1.000
    O228    O    0.57461   0.81327   0.61255   1.000
    O229    O    0.72887   0.11537   0.61013   1.000
    O230    O    0.76360   0.04450   0.61948   1.000
    O231    O    0.77457   0.19240   0.62303   1.000
    O232    O    0.34633   0.44534   0.61646   1.000
    O233    O    0.40942   0.41125   0.61841   1.000
    O234    O    0.47824   0.37130   0.62189   1.000
    O235    O    0.63924   0.86451   0.61733   1.000
    O236    O    0.71666   0.91894   0.62403   1.000
    O237    O    0.64374   0.79217   0.62917   1.000
    O238    O    0.33128   0.38220   0.63251   1.000
    O239    O    0.57189   0.33533   0.62811   1.000
    O240    O    0.66452   0.41105   0.64960   1.000
    O241    O    0.66424   0.35051   0.70433   1.000
    O242    O    0.47023   0.30288   0.63846   1.000
    O243    O    0.78557   0.97720   0.63073   1.000
    O244    O    0.83994   0.04085   0.63577   1.000
    O245    O    0.79780   0.89983   0.64189   1.000
    O246    O    0.19085   0.65956   0.64440   1.000
    O247    O    0.28577   0.67183   0.67180   1.000
    O248    O    0.83579   0.29625   0.65014   1.000
    O249    O    0.65173   0.70749   0.64343   1.000
    O250    O    0.72569   0.77265   0.64722   1.000
    O251    O    0.24998   0.35285   0.64737   1.000
    O252    O    0.32300   0.31167   0.65002   1.000
    O253    O    0.69094   0.64386   0.65870   1.000
    O254    O    0.39314   0.27231   0.65248   1.000
    O255    O    0.45987   0.24147   0.65251   1.000
    O256    O    0.17664   0.35022   0.68841   1.000
    O257    O    0.80232   0.82589   0.65323   1.000
    O258    O    0.86617   0.87722   0.65753   1.000
    O259    O    0.15164   0.64390   0.70801   1.000
    O260    O    0.79951   0.74598   0.66366   1.000
    O261    O    0.32254   0.24663   0.66360   1.000
    O262    O    0.92808   0.37223   0.66439   1.000
    O263    O    0.02941   0.36182   0.69696   1.000
    O264    O    0.85214   0.44717   0.67488   1.000
    O265    O    0.85218   0.39338   0.73850   1.000
    O266    O    0.78588   0.67168   0.67105   1.000
    O267    O    0.75761   0.58825   0.67352   1.000
    O268    O    0.72380   0.51443   0.67435   1.000
    O269    O    0.85977   0.70878   0.67866   1.000
    O270    O    0.80680   0.53174   0.68115   1.000
    O271    O    0.35966   0.67927   0.70851   1.000
    O272    O    0.29941   0.66401   0.74586   1.000
    O273    O    0.10619   0.34769   0.72762   1.000
    O274    O    0.17654   0.33649   0.75335   1.000
    O275    O    0.03921   0.34763   0.75826   1.000
    O276    O    0.22559   0.64737   0.77275   1.000
    O277    O    0.14365   0.62919   0.79250   1.000
    O278    O    0.72551   0.37863   0.80829   1.000
    O279    O    0.30221   0.65315   0.82558   1.000
    O280    O    0.07452   0.61243   0.81380   1.000
    O281    O    0.80883   0.40270   0.82400   1.000
    O282    O    0.13913   0.61698   0.86471   1.000
    O283    O    0.77127   0.39134   0.88512   1.000
    O284    O    0.36604   0.65723   0.87656   1.000
    O285    O    0.29767   0.64145   0.89938   1.000
    O286    O    0.21653   0.62346   0.91875   1.000
    O287    O    0.13663   0.60369   0.95088   1.000
    O288    O    0.73655   0.38173   0.95607   1.000
    O289    O    0.66021   0.36537   0.95997   1.000
    O290    O    0.25002   0.64620   0.35384   1.000
    O291    O    0.75000   0.35382   0.64613   1.000
loop_
    _geom_bond_atom_site_label_1
    _geom_bond_atom_site_label_2
    _geom_bond_distance
    _geom_bond_site_symmetry_2
    _ccdc_geom_bond_type
    C109   O132      0.87053      .   S
    C79    O132      0.87053      .   S
    C109   O133      0.87643  1_554   S
    C70    O133      0.87643      .   S
    C37    O134      0.54400      .   S
    C4     O134      0.54400      .   S
    C37    O135      0.68481      .   S
    C36    O135      0.68481      .   S
    C37    O136      0.71548  1_554   S
    C41    O136      0.71548      .   S
    C36    O137      0.74064      .   S
    C44    O137      0.74064      .   S
    C36    O138      0.87641      .   S
    C105   O138      0.87641  1_556   S
    C75    O139      0.71966      .   S
    C79    O139      0.71966      .   S
    C75    O140      0.70059      .   S
    C81    O140      0.70059      .   S
    C75    O141      0.71548      .   S
    C71    O141      0.71548  1_556   S
    C79    O142      0.69782      .   S
    C83    O142      0.69782      .   S
    C24    O143      0.54549      .   S
    C81    O143      0.54549      .   S
    C81    O144      0.70021      .   S
    C85    O144      0.70021      .   S
    C44    O145      0.64144      .   S
    C117   O145      0.64144      .   S
    C44    O146      0.63421      .   S
    C119   O146      0.63421      .   S
    C83    O147      0.54517      .   S
    C25    O147      0.54517      .   S
    C83    O148      0.69731      .   S
    C76    O148      0.69731      .   S
    C117   O149      1.01371      .   S
    C0     O149      1.01371      .   S
    C6     O150      0.54488      .   S
    C40    O150      0.54488      .   S
    C85    O151      0.71930      .   S
    C76    O151      0.71930      .   S
    C85    O152      0.71680      .   S
    C82    O152      0.71680      .   S
    C10    O153      0.54465      .   S
    C50    O153      0.54465      .   S
    C119   O154      1.06102      .   S
    C1     O154      1.06102      .   S
    C76    O155      0.87043      .   S
    C108   O155      0.87043      .   S
    C40    O156      0.69407      .   S
    C50    O156      0.69407      .   S
    C40    O157      0.67454      .   S
    C112   O157      0.67454      .   S
    C50    O158      0.70156      .   S
    C39    O158      0.70156      .   S
    C82    O159      0.54438      .   S
    C27    O159      0.54438      .   S
    C82    O160      0.68502      .   S
    C77    O160      0.68502      .   S
    C120   O161      0.63537      .   S
    C69    O161      0.63537      .   S
    C120   O162      1.06590      .   S
    C0     O162      1.06590      .   S
    C19    O163      0.54438      .   S
    C65    O163      0.54438      .   S
    C69    O164      0.63998      .   S
    C122   O164      0.63998      .   S
    C69    O165      0.74055      .   S
    C60    O165      0.74055      .   S
    C65    O166      0.68497      .   S
    C60    O166      0.68497      .   S
    C65    O167      0.71681      .   S
    C68    O167      0.71681      .   S
    C122   O168      1.02707      .   S
    C1     O168      1.02707      .   S
    C18    O169      0.54467      .   S
    C67    O169      0.54467      .   S
    C60    O170      0.87708      .   S
    C106   O170      0.87708      .   S
    C0     O171      1.02406      .   S
    C112   O171      1.02406  1_655   S
    C0     O172      1.06164      .   S
    C123   O172      1.06164      .   S
    C0     O173      1.02674      .   S
    C118   O173      1.02674      .   S
    C112   O174      0.67421      .   S
    C38    O174      0.67421      .   S
    C16    O175      0.54547      .   S
    C64    O175      0.54547      .   S
    C14    O176      0.54487      .   S
    C57    O176      0.54487      .   S
    C67    O177      0.69408      .   S
    C57    O177      0.69408      .   S
    C67    O178      0.70158      .   S
    C56    O178      0.70158      .   S
    C68    O179      0.70027      .   S
    C64    O179      0.70027      .   S
    C68    O180      0.71929      .   S
    C59    O180      0.71929      .   S
    C108   O181      0.87702      .   S
    C77    O181      0.87702      .   S
    C64    O182      0.70054      .   S
    C58    O182      0.70054      .   S
    C39    O183      0.73757      .   S
    C56    O183      0.73757      .   S
    C39    O184      0.70063      .   S
    C46    O184      0.70063      .   S
    C57    O185      0.67458      .   S
    C113   O185      0.67458      .   S
    C106   O186      0.87043      .   S
    C59    O186      0.87043      .   S
    C56    O187      0.70059      .   S
    C63    O187      0.70059      .   S
    C12    O188      0.54399      .   S
    C54    O188      0.54399      .   S
    C59    O189      0.69731      .   S
    C66    O189      0.69731      .   S
    C123   O190      0.63421      .   S
    C61    O190      0.63421      .   S
    C77    O191      0.74043      .   S
    C86    O191      0.74043      .   S
    C58    O192      0.71529      .   S
    C54    O192      0.71529  1_565   S
    C58    O193      0.71968      .   S
    C62    O193      0.71968      .   S
    C54    O194      0.68483      .   S
    C53    O194      0.68483      .   S
    C113   O195      1.02470      .   S
    C1     O195      1.02470      .   S
    C113   O196      0.67422      .   S
    C55    O196      0.67422      .   S
    C1     O197      1.01316      .   S
    C121   O197      1.01316      .   S
    C1     O198      1.06598      .   S
    C116   O198      1.06598      .   S
    C63    O199      0.69281      .   S
    C55    O199      0.69281      .   S
    C63    O200      0.54435      .   S
    C15    O200      0.54435      .   S
    C66    O201      0.69777      .   S
    C62    O201      0.69777      .   S
    C66    O202      0.54519      .   S
    C17    O202      0.54519      .   S
    C62    O203      0.87059      .   S
    C107   O203      0.87059      .   S
    C55    O204      0.54417      .   S
    C13    O204      0.54417      .   S
    C61    O205      0.74048      .   S
    C53    O205      0.74048      .   S
    C61    O206      0.64149      .   S
    C121   O206      0.64149      .   S
    C53    O207      0.87632      .   S
    C107   O207      0.87632  1_545   S
    C38    O208      0.69283      .   S
    C46    O208      0.69283      .   S
    C38    O209      0.52247      .   S
    C5     O209      0.52247  1_455   S
    C46    O210      0.54431      .   S
    C7     O210      0.54431      .   S
    C86    O211      0.63536      .   S
    C124   O211      0.63536      .   S
    C86    O212      0.64007      .   S
    C126   O212      0.64007      .   S
    C124   O213      1.06599      .   S
    C3     O213      1.06599      .   S
    C118   O214      0.64005      .   S
    C52    O214      0.64005      .   S
    C126   O215      1.02649      .   S
    C2     O215      1.02649      .   S
    C116   O216      0.63535      .   S
    C52    O216      0.63535      .   S
    C23    O217      0.54438      .   S
    C80    O217      0.54438      .   S
    C21    O218      0.54419  1_655   S
    C72    O218      0.54419      .   S
    C52    O219      0.74051      .   S
    C43    O219      0.74051      .   S
    C80    O220      0.69281      .   S
    C72    O220      0.69281      .   S
    C80    O221      0.70024      .   S
    C73    O221      0.70024      .   S
    C129   O222      0.64143      .   S
    C95    O222      0.64143      .   S
    C129   O223      1.01316      .   S
    C3     O223      1.01316      .   S
    C72    O224      0.67421      .   S
    C114   O224      0.67421      .   S
    C111   O225      0.87631  1_565   S
    C87    O225      0.87631      .   S
    C111   O226      0.87058      .   S
    C96    O226      0.87058      .   S
    C29    O227      0.54418      .   S
    C89    O227      0.54418      .   S
    C33    O228      0.54520      .   S
    C100   O228      0.54520      .   S
    C87    O229      0.74057      .   S
    C95    O229      0.74057      .   S
    C87    O230      0.68482      .   S
    C88    O230      0.68482      .   S
    C95    O231      0.63419      .   S
    C131   O231      0.63419      .   S
    C31    O232      0.54435      .   S
    C97    O232      0.54435      .   S
    C89    O233      0.69281      .   S
    C97    O233      0.69281      .   S
    C89    O234      0.67423      .   S
    C115   O234      0.67423      .   S
    C96    O235      0.69774      .   S
    C100   O235      0.69774      .   S
    C96    O236      0.71970      .   S
    C92    O236      0.71970      .   S
    C100   O237      0.69737      .   S
    C93    O237      0.69737      .   S
    C97    O238      0.70059      .   S
    C90    O238      0.70059      .   S
    C3     O239      1.02470      .   S
    C115   O239      1.02470      .   S
    C3     O240      1.02708      .   S
    C130   O240      1.02708      .   S
    C3     O241      1.06102      .   S
    C127   O241      1.06102      .   S
    C115   O242      0.67459      .   S
    C91    O242      0.67459      .   S
    C88    O243      0.71509  1_545   S
    C92    O243      0.71509      .   S
    C88    O244      0.54399      .   S
    C28    O244      0.54399      .   S
    C92    O245      0.70073      .   S
    C98    O245      0.70073      .   S
    C43    O246      0.87702      .   S
    C104   O246      0.87702      .   S
    C43    O247      0.68496      .   S
    C48    O247      0.68496      .   S
    C131   O248      1.06174      .   S
    C2     O248      1.06174      .   S
    C93    O249      0.87040      .   S
    C110   O249      0.87040      .   S
    C93    O250      0.71930      .   S
    C102   O250      0.71930      .   S
    C90    O251      0.73750      .   S
    C73    O251      0.73750      .   S
    C90    O252      0.70158      .   S
    C101   O252      0.70158      .   S
    C110   O253      0.87708      .   S
    C94    O253      0.87708      .   S
    C91    O254      0.69408      .   S
    C101   O254      0.69408      .   S
    C91    O255      0.54488      .   S
    C30    O255      0.54488      .   S
    C73    O256      0.70204      .   S
    C84    O256      0.70204      .   S
    C98    O257      0.70027      .   S
    C102   O257      0.70027      .   S
    C98    O258      0.54548      .   S
    C32    O258      0.54548      .   S
    C104   O259      0.87044      .   S
    C42    O259      0.87044      .   S
    C102   O260      0.71680      .   S
    C99    O260      0.71680      .   S
    C101   O261      0.54467      .   S
    C34    O261      0.54467      .   S
    C114   O262      1.02403  1_455   S
    C2     O262      1.02403      .   S
    C114   O263      0.67455      .   S
    C74    O263      0.67455      .   S
    C2     O264      1.06584      .   S
    C128   O264      1.06584      .   S
    C2     O265      1.01394      .   S
    C125   O265      1.01394      .   S
    C94    O266      0.68497      .   S
    C99    O266      0.68497      .   S
    C94    O267      0.74055      .   S
    C103   O267      0.74055      .   S
    C130   O268      0.63997      .   S
    C103   O268      0.63997      .   S
    C99    O269      0.54438      .   S
    C35    O269      0.54438      .   S
    C103   O270      0.63537      .   S
    C128   O270      0.63537      .   S
    C11    O271      0.54438      .   S
    C48    O271      0.54438      .   S
    C48    O272      0.71681      .   S
    C51    O272      0.71681      .   S
    C84    O273      0.69406      .   S
    C74    O273      0.69406      .   S
    C84    O274      0.54411      .   S
    C26    O274      0.54411      .   S
    C74    O275      0.54448      .   S
    C22    O275      0.54448      .   S
    C42    O276      0.71930      .   S
    C51    O276      0.71930      .   S
    C42    O277      0.69689      .   S
    C49    O277      0.69689      .   S
    C127   O278      0.63420      .   S
    C78    O278      0.63420      .   S
    C51    O279      0.70028      .   S
    C47    O279      0.70028      .   S
    C9     O280      0.54514      .   S
    C49    O280      0.54514      .   S
    C125   O281      0.64144      .   S
    C78    O281      0.64144      .   S
    C49    O282      0.69821      .   S
    C45    O282      0.69821      .   S
    C78    O283      0.74063      .   S
    C70    O283      0.74063      .   S
    C47    O284      0.54548      .   S
    C8     O284      0.54548      .   S
    C47    O285      0.70053      .   S
    C41    O285      0.70053      .   S
    C45    O286      0.71967      .   S
    C41    O286      0.71967      .   S
    C45    O287      0.87061      .   S
    C105   O287      0.87061      .   S
    C70    O288      0.68481      .   S
    C71    O288      0.68481      .   S
    C20    O289      0.54400      .   S
    C71    O289      0.54400      .   S
    C0     O290      1.42219      .   S
    C1     O290      1.42219      .   S
    C2     O291      1.42220      .   S
    C3     O291      1.42220      .   S
