# CIF file generated by openbabel 2.4.90, see http://openbabel.sf.net
data_I
_chemical_name_common ''
_cell_length_a 22.915
_cell_length_b 13.727
_cell_length_c 18.178
_cell_angle_alpha 100.366
_cell_angle_beta 89.956
_cell_angle_gamma 114.764
_space_group_name_H-M_alt 'P 1'
_space_group_name_Hall 'P 1'
loop_
    _symmetry_equiv_pos_as_xyz
    x,y,z
loop_
    _atom_site_label
    _atom_site_type_symbol
    _atom_site_fract_x
    _atom_site_fract_y
    _atom_site_fract_z
    _atom_site_occupancy
    N0      N    0.25001   0.00004   0.99997   1.000
    N1      N    0.74999   0.00004   0.99999   1.000
    N2      N    0.74999   0.00004   0.49998   1.000
    N3      N    0.25000   0.00004   0.49998   1.000
    N4      N    0.63614   0.00007   0.24998   1.000
    N5      N    0.26028   0.60352   0.60465   1.000
    N6      N    0.76027   0.60352   0.60462   1.000
    N7      N    0.13616   0.00007   0.24998   1.000
    N8      N    0.86384   0.99999   0.74999   1.000
    N9      N    0.23972   0.39655   0.39531   1.000
    N10     N    0.73971   0.39655   0.39531   1.000
    N11     N    0.04159   0.60379   0.10469   1.000
    N12     N    0.45841   0.39628   0.89527   1.000
    N13     N    0.95841   0.39628   0.89528   1.000
    N14     N    0.54158   0.60379   0.10469   1.000
    N15     N    0.36385   0.99999   0.74998   1.000
    Zr16    Zr   0.99100   0.39815   0.40315   1.000
    O17     O    0.95698   0.28952   0.50133   1.000
    O18     O    0.06470   0.39673   0.40050   1.000
    O19     O    0.91651   0.39908   0.40098   1.000
    O20     O    0.03367   0.31919   0.36524   1.000
    O21     O    0.92513   0.28174   0.29183   1.000
    Zr22    Zr   0.49100   0.39815   0.40315   1.000
    O23     O    0.42514   0.28174   0.29182   1.000
    O24     O    0.41652   0.39908   0.40098   1.000
    O25     O    0.53367   0.31919   0.36524   1.000
    O26     O    0.45699   0.28952   0.50133   1.000
    O27     O    0.56470   0.39673   0.40050   1.000
    Zr28    Zr   0.70780   0.39778   0.90310   1.000
    O29     O    0.75081   0.31890   0.86520   1.000
    O30     O    0.78278   0.39872   0.90093   1.000
    O31     O    0.71550   0.28145   0.79179   1.000
    O32     O    0.68755   0.28929   0.00130   1.000
    O33     O    0.63344   0.39643   0.90046   1.000
    Zr34    Zr   0.29219   0.60228   0.09688   1.000
    O35     O    0.21721   0.60135   0.09905   1.000
    O36     O    0.24919   0.68116   0.13477   1.000
    O37     O    0.28449   0.71862   0.20818   1.000
    O38     O    0.36655   0.60364   0.09951   1.000
    O39     O    0.31244   0.71078   0.99867   1.000
    Zr40    Zr   0.79218   0.60228   0.09688   1.000
    O41     O    0.81243   0.71078   0.99867   1.000
    O42     O    0.74918   0.68117   0.13478   1.000
    O43     O    0.78448   0.71862   0.20818   1.000
    O44     O    0.71720   0.60135   0.09905   1.000
    O45     O    0.86655   0.60364   0.09951   1.000
    Zr46    Zr   0.00899   0.60192   0.59680   1.000
    O47     O    0.96632   0.68088   0.63472   1.000
    O48     O    0.04301   0.71055   0.49862   1.000
    O49     O    0.07487   0.71833   0.70813   1.000
    O50     O    0.93529   0.60334   0.59945   1.000
    O51     O    0.08348   0.60100   0.59897   1.000
    Zr52    Zr   0.50899   0.60192   0.59683   1.000
    O53     O    0.46632   0.68088   0.63473   1.000
    O54     O    0.54300   0.71055   0.49864   1.000
    O55     O    0.43529   0.60335   0.59947   1.000
    O56     O    0.58347   0.60100   0.59899   1.000
    O57     O    0.57485   0.71833   0.70815   1.000
    Zr58    Zr   0.20781   0.39779   0.90310   1.000
    O59     O    0.25081   0.31890   0.86520   1.000
    O60     O    0.18757   0.28929   0.00130   1.000
    O61     O    0.21551   0.28145   0.79178   1.000
    O62     O    0.13345   0.39643   0.90046   1.000
    O63     O    0.28279   0.39872   0.90093   1.000
loop_
    _geom_bond_atom_site_label_1
    _geom_bond_atom_site_label_2
    _geom_bond_distance
    _geom_bond_site_symmetry_2
    _ccdc_geom_bond_type
    Zr16   O17       2.44919      .   S
    N8     O17       6.33445  1_565   S
    Zr16   O18       1.69768  1_655   S
    N9     O18       4.01270      .   S
    Zr16   O19       1.71269      .   S
    N10    O19       4.03834      .   S
    Zr16   O20       1.79554  1_655   S
    N7     O20       5.86535      .   S
    Zr16   O21       2.39729      .   S
    N1     O21       6.23317  1_556   S
    Zr22   O23       2.39732      .   S
    N0     O23       6.23326  1_556   S
    Zr22   O24       1.71264      .   S
    N9     O24       4.03825      .   S
    Zr22   O25       1.79537      .   S
    N4     O25       5.86513      .   S
    Zr22   O26       2.44917      .   S
    N15    O26       6.33437  1_565   S
    Zr22   O27       1.69751      .   S
    N10    O27       4.01241      .   S
    Zr28   O29       1.80075      .   S
    N8     O29       6.03742  1_565   S
    Zr28   O30       1.71337      .   S
    N13    O30       4.03960      .   S
    Zr28   O31       2.39747      .   S
    N2     O31       6.23392      .   S
    Zr28   O32       2.44877  1_556   S
    N4     O32       6.33371      .   S
    Zr28   O33       1.69681      .   S
    N12    O33       4.01124      .   S
    Zr34   O35       1.71340      .   S
    N11    O35       4.03963      .   S
    Zr34   O36       1.80067      .   S
    N7     O36       6.03745  1_545   S
    Zr34   O37       2.39745      .   S
    N3     O37       6.23383  1_545   S
    Zr34   O38       1.69678      .   S
    N14    O38       4.01120      .   S
    Zr34   O39       2.44885  1_554   S
    N15    O39       6.33390      .   S
    Zr40   O41       2.44887  1_554   S
    N8     O41       6.33377      .   S
    Zr40   O42       1.80073      .   S
    N4     O42       6.03744  1_545   S
    Zr40   O43       2.39745      .   S
    N2     O43       6.23390  1_545   S
    Zr40   O44       1.71334      .   S
    N14    O44       4.03948      .   S
    Zr40   O45       1.69688      .   S
    N11    O45       4.01143  1_455   S
    Zr46   O47       1.79551  1_455   S
    N8     O47       5.86531      .   S
    Zr46   O48       2.44906      .   S
    N7     O48       6.33425  1_545   S
    Zr46   O49       2.39739      .   S
    N0     O49       6.23327  1_545   S
    Zr46   O50       1.69768  1_455   S
    N6     O50       4.01269      .   S
    Zr46   O51       1.71270      .   S
    N5     O51       4.03836      .   S
    Zr52   O53       1.79532      .   S
    N15    O53       5.86501      .   S
    Zr52   O54       2.44923      .   S
    N4     O54       6.33451  1_545   S
    Zr52   O55       1.69748      .   S
    N5     O55       4.01235      .   S
    Zr52   O56       1.71265      .   S
    N6     O56       4.03827      .   S
    Zr52   O57       2.39727      .   S
    N1     O57       6.23312  1_545   S
    Zr58   O59       1.80072      .   S
    N15    O59       6.03750  1_565   S
    Zr58   O60       2.44877  1_556   S
    N7     O60       6.33373      .   S
    Zr58   O61       2.39764      .   S
    N3     O61       6.23386      .   S
    Zr58   O62       1.69690      .   S
    N13    O62       4.01145  1_655   S
    Zr58   O63       1.71333      .   S
    N12    O63       4.03947      .   S
