# CIF file generated by openbabel 2.4.90, see http://openbabel.sf.net
data_I
_chemical_name_common ''
_cell_length_a 22.915
_cell_length_b 13.727
_cell_length_c 18.178
_cell_angle_alpha 100.366
_cell_angle_beta 89.956
_cell_angle_gamma 114.764
_space_group_name_H-M_alt 'P 1'
_space_group_name_Hall 'P 1'
loop_
    _symmetry_equiv_pos_as_xyz
    x,y,z
loop_
    _atom_site_label
    _atom_site_type_symbol
    _atom_site_fract_x
    _atom_site_fract_y
    _atom_site_fract_z
    _atom_site_occupancy
    C0      C    0.49100   0.39815   0.40315   1.000
    C1      C    0.99100   0.39815   0.40315   1.000
    C2      C    0.29219   0.60228   0.09688   1.000
    C3      C    0.79218   0.60228   0.09688   1.000
    C4      C    0.00899   0.60192   0.59680   1.000
    C5      C    0.50899   0.60192   0.59683   1.000
    C6      C    0.20781   0.39779   0.90310   1.000
    C7      C    0.70780   0.39778   0.90310   1.000
    C8      C    0.07566   0.64498   0.29604   1.000
    C9      C    0.57565   0.64498   0.29604   1.000
    C10     C    0.11830   0.79907   0.22554   1.000
    C11     C    0.61829   0.79907   0.22550   1.000
    C12     C    0.11868   0.02323   0.42388   1.000
    C13     C    0.61868   0.02324   0.42389   1.000
    C14     C    0.07406   0.86848   0.49361   1.000
    C15     C    0.57405   0.86848   0.49361   1.000
    C16     C    0.39510   0.33969   0.13854   1.000
    C17     C    0.89509   0.33970   0.13854   1.000
    C18     C    0.31045   0.20486   0.03910   1.000
    C19     C    0.81044   0.20486   0.03916   1.000
    C20     C    0.31097   0.94058   0.13483   1.000
    C21     C    0.81096   0.94058   0.13482   1.000
    C22     C    0.39379   0.07735   0.23655   1.000
    C23     C    0.89378   0.07735   0.23655   1.000
    C24     C    0.07039   0.31038   0.48672   1.000
    C25     C    0.57038   0.31038   0.48672   1.000
    C26     C    0.17941   0.31139   0.48786   1.000
    C27     C    0.67940   0.31139   0.48786   1.000
    C28     C    0.21453   0.47756   0.29980   1.000
    C29     C    0.71452   0.47756   0.29980   1.000
    C30     C    0.10386   0.46887   0.30778   1.000
    C31     C    0.60384   0.46887   0.30778   1.000
    C32     C    0.24649   0.24656   0.43475   1.000
    C33     C    0.74648   0.24656   0.43475   1.000
    C34     C    0.35820   0.26331   0.44050   1.000
    C35     C    0.85819   0.26331   0.44050   1.000
    C36     C    0.42677   0.54826   0.35615   1.000
    C37     C    0.92676   0.54826   0.35615   1.000
    C38     C    0.31721   0.54401   0.34534   1.000
    C39     C    0.81720   0.54401   0.34530   1.000
    C40     C    0.25296   0.35540   0.20391   1.000
    C41     C    0.75295   0.35540   0.20391   1.000
    C42     C    0.21879   0.20129   0.27434   1.000
    C43     C    0.71877   0.20129   0.27434   1.000
    C44     C    0.10707   0.97670   0.07605   1.000
    C45     C    0.60705   0.97671   0.07606   1.000
    C46     C    0.13961   0.13146   0.00639   1.000
    C47     C    0.63959   0.13146   0.00639   1.000
    C48     C    0.22561   0.66069   0.36164   1.000
    C49     C    0.72560   0.66069   0.36164   1.000
    C50     C    0.20826   0.79524   0.46101   1.000
    C51     C    0.70824   0.79524   0.46100   1.000
    C52     C    0.34069   0.05981   0.36494   1.000
    C53     C    0.84066   0.05982   0.36493   1.000
    C54     C    0.35522   0.92331   0.26323   1.000
    C55     C    0.85520   0.92331   0.26322   1.000
    C56     C    0.41548   0.68956   0.01313   1.000
    C57     C    0.91547   0.68956   0.01313   1.000
    C58     C    0.02403   0.68870   0.01202   1.000
    C59     C    0.52403   0.68870   0.01202   1.000
    C60     C    0.47570   0.52295   0.20029   1.000
    C61     C    0.97569   0.52296   0.20029   1.000
    C62     C    0.36936   0.53158   0.19233   1.000
    C63     C    0.86936   0.53159   0.19233   1.000
    C64     C    0.12361   0.75367   0.06507   1.000
    C65     C    0.62360   0.75366   0.06507   1.000
    C66     C    0.22697   0.73708   0.05939   1.000
    C67     C    0.72696   0.73708   0.05939   1.000
    C68     C    0.15259   0.45239   0.14405   1.000
    C69     C    0.65258   0.45239   0.14405   1.000
    C70     C    0.04512   0.45650   0.15483   1.000
    C71     C    0.54510   0.45651   0.15484   1.000
    C72     C    0.42434   0.35509   0.70390   1.000
    C73     C    0.92433   0.35509   0.70394   1.000
    C74     C    0.38170   0.20099   0.77443   1.000
    C75     C    0.88169   0.20099   0.77443   1.000
    C76     C    0.38131   0.97683   0.57608   1.000
    C77     C    0.88129   0.97683   0.57608   1.000
    C78     C    0.42594   0.13159   0.50636   1.000
    C79     C    0.92592   0.13159   0.50636   1.000
    C80     C    0.10490   0.66038   0.86144   1.000
    C81     C    0.60489   0.66037   0.86144   1.000
    C82     C    0.18956   0.79521   0.96081   1.000
    C83     C    0.68954   0.79521   0.96081   1.000
    C84     C    0.18905   0.05949   0.86514   1.000
    C85     C    0.68903   0.05949   0.86514   1.000
    C86     C    0.10624   0.92272   0.76342   1.000
    C87     C    0.60622   0.92272   0.76342   1.000
    C88     C    0.42962   0.68969   0.51325   1.000
    C89     C    0.92960   0.68969   0.51325   1.000
    C90     C    0.32059   0.68867   0.51211   1.000
    C91     C    0.82058   0.68868   0.51211   1.000
    C92     C    0.28547   0.52251   0.70018   1.000
    C93     C    0.78546   0.52251   0.70018   1.000
    C94     C    0.39615   0.53120   0.69220   1.000
    C95     C    0.89613   0.53120   0.69220   1.000
    C96     C    0.25351   0.75350   0.56522   1.000
    C97     C    0.75349   0.75351   0.56522   1.000
    C98     C    0.14180   0.73676   0.55947   1.000
    C99     C    0.64179   0.73676   0.55948   1.000
    C100    C    0.07323   0.45181   0.64380   1.000
    C101    C    0.57322   0.45181   0.64382   1.000
    C102    C    0.18280   0.45606   0.65464   1.000
    C103    C    0.68278   0.45606   0.65464   1.000
    C104    C    0.24705   0.64466   0.79607   1.000
    C105    C    0.74703   0.64467   0.79607   1.000
    C106    C    0.28122   0.79877   0.72563   1.000
    C107    C    0.78120   0.79878   0.72560   1.000
    C108    C    0.39294   0.02336   0.92390   1.000
    C109    C    0.89295   0.02336   0.92391   1.000
    C110    C    0.36041   0.86861   0.99358   1.000
    C111    C    0.86040   0.86861   0.99358   1.000
    C112    C    0.27439   0.33938   0.63834   1.000
    C113    C    0.77438   0.33938   0.63834   1.000
    C114    C    0.29174   0.20484   0.53897   1.000
    C115    C    0.79174   0.20484   0.53898   1.000
    C116    C    0.15931   0.94026   0.63503   1.000
    C117    C    0.65931   0.94026   0.63500   1.000
    C118    C    0.14478   0.07676   0.73670   1.000
    C119    C    0.64477   0.07676   0.73675   1.000
    C120    C    0.08452   0.31050   0.98684   1.000
    C121    C    0.58451   0.31051   0.98680   1.000
    C122    C    0.47596   0.31136   0.98796   1.000
    C123    C    0.97596   0.31136   0.98795   1.000
    C124    C    0.02430   0.47711   0.79969   1.000
    C125    C    0.52429   0.47711   0.79968   1.000
    C126    C    0.13064   0.46849   0.80765   1.000
    C127    C    0.63063   0.46849   0.80760   1.000
    C128    C    0.37639   0.24640   0.93490   1.000
    C129    C    0.87638   0.24640   0.93491   1.000
    C130    C    0.27304   0.26299   0.94058   1.000
    C131    C    0.77303   0.26299   0.94050   1.000
    C132    C    0.34741   0.54769   0.85593   1.000
    C133    C    0.84740   0.54769   0.85593   1.000
    C134    C    0.45489   0.54356   0.84514   1.000
    C135    C    0.95488   0.54356   0.84514   1.000
    C136    C    0.04464   0.65407   0.43974   1.000
    C137    C    0.54466   0.65409   0.43975   1.000
    C138    C    0.07120   0.74719   0.39852   1.000
    C139    C    0.57117   0.74718   0.39851   1.000
    C140    C    0.08440   0.72799   0.32296   1.000
    C141    C    0.58438   0.72799   0.32296   1.000
    C142    C    0.10795   0.81286   0.28392   1.000
    C143    C    0.60793   0.81285   0.28392   1.000
    C144    C    0.11946   0.91962   0.32036   1.000
    C145    C    0.61945   0.91962   0.32036   1.000
    C146    C    0.10820   0.93965   0.39636   1.000
    C147    C    0.60819   0.93965   0.39636   1.000
    C148    C    0.08349   0.85390   0.43488   1.000
    C149    C    0.58348   0.85391   0.43488   1.000
    C150    C    0.44591   0.29788   0.25755   1.000
    C151    C    0.94589   0.29788   0.25756   1.000
    C152    C    0.39968   0.21626   0.19371   1.000
    C153    C    0.89967   0.21626   0.19370   1.000
    C154    C    0.37691   0.25218   0.13696   1.000
    C155    C    0.87689   0.25218   0.13697   1.000
    C156    C    0.33036   0.17768   0.08100   1.000
    C157    C    0.83035   0.17768   0.08129   1.000
    C158    C    0.30631   0.06463   0.08013   1.000
    C159    C    0.80630   0.06463   0.08014   1.000
    C160    C    0.32980   0.02817   0.13593   1.000
    C161    C    0.82979   0.02817   0.13592   1.000
    C162    C    0.37578   0.10371   0.19218   1.000
    C163    C    0.87577   0.10371   0.19218   1.000
    C164    C    0.10402   0.34565   0.44618   1.000
    C165    C    0.60401   0.34564   0.44618   1.000
    C166    C    0.16467   0.34576   0.44572   1.000
    C167    C    0.66466   0.34576   0.44573   1.000
    C168    C    0.20669   0.39339   0.39297   1.000
    C169    C    0.70668   0.39339   0.39296   1.000
    C170    C    0.18433   0.43824   0.34189   1.000
    C171    C    0.68432   0.43825   0.34189   1.000
    C172    C    0.12293   0.43472   0.34619   1.000
    C173    C    0.62291   0.43471   0.34619   1.000
    C174    C    0.27216   0.39713   0.39281   1.000
    C175    C    0.77214   0.39714   0.39281   1.000
    C176    C    0.28494   0.31692   0.41850   1.000
    C177    C    0.78493   0.31691   0.41849   1.000
    C178    C    0.34742   0.32541   0.42166   1.000
    C179    C    0.84740   0.32541   0.42160   1.000
    C180    C    0.38539   0.48371   0.37397   1.000
    C181    C    0.88538   0.48371   0.37398   1.000
    C182    C    0.32411   0.48095   0.36829   1.000
    C183    C    0.82409   0.48095   0.36829   1.000
    C184    C    0.21723   0.34609   0.06029   1.000
    C185    C    0.71725   0.34607   0.06027   1.000
    C186    C    0.19737   0.25296   0.10147   1.000
    C187    C    0.69734   0.25297   0.10148   1.000
    C188    C    0.22022   0.27229   0.17699   1.000
    C189    C    0.72023   0.27228   0.17699   1.000
    C190    C    0.20149   0.18741   0.21599   1.000
    C191    C    0.70146   0.18741   0.21600   1.000
    C192    C    0.15964   0.08052   0.17956   1.000
    C193    C    0.65964   0.08052   0.17956   1.000
    C194    C    0.13834   0.06037   0.10358   1.000
    C195    C    0.63831   0.06038   0.10359   1.000
    C196    C    0.15636   0.14613   0.06511   1.000
    C197    C    0.65636   0.14612   0.06510   1.000
    C198    C    0.29727   0.70273   0.24244   1.000
    C199    C    0.79728   0.70274   0.24245   1.000
    C200    C    0.29181   0.78427   0.30628   1.000
    C201    C    0.79178   0.78427   0.30620   1.000
    C202    C    0.25108   0.74821   0.36310   1.000
    C203    C    0.75108   0.74821   0.36311   1.000
    C204    C    0.24173   0.82256   0.41879   1.000
    C205    C    0.74171   0.82256   0.41878   1.000
    C206    C    0.27408   0.93562   0.41983   1.000
    C207    C    0.77407   0.93562   0.41983   1.000
    C208    C    0.31579   0.97222   0.36394   1.000
    C209    C    0.81576   0.97223   0.36392   1.000
    C210    C    0.32404   0.89683   0.30766   1.000
    C211    C    0.82404   0.89683   0.30767   1.000
    C212    C    0.43141   0.65441   0.05372   1.000
    C213    C    0.93141   0.65441   0.05372   1.000
    C214    C    0.49201   0.65437   0.05418   1.000
    C215    C    0.99201   0.65436   0.05418   1.000
    C216    C    0.01013   0.60690   0.10701   1.000
    C217    C    0.51012   0.60689   0.10701   1.000
    C218    C    0.46523   0.56212   0.15810   1.000
    C219    C    0.96522   0.56212   0.15813   1.000
    C220    C    0.40558   0.56560   0.15385   1.000
    C221    C    0.90557   0.56560   0.15385   1.000
    C222    C    0.07373   0.60321   0.10717   1.000
    C223    C    0.57372   0.60321   0.10717   1.000
    C224    C    0.12678   0.68342   0.08143   1.000
    C225    C    0.62677   0.68341   0.08143   1.000
    C226    C    0.18502   0.67500   0.07829   1.000
    C227    C    0.68501   0.67500   0.07829   1.000
    C228    C    0.14359   0.51685   0.12615   1.000
    C229    C    0.64358   0.51685   0.12615   1.000
    C230    C    0.08365   0.51953   0.13182   1.000
    C231    C    0.58365   0.51953   0.13182   1.000
    C232    C    0.45533   0.34598   0.56023   1.000
    C233    C    0.95531   0.34598   0.56022   1.000
    C234    C    0.42882   0.25288   0.60146   1.000
    C235    C    0.92881   0.25289   0.60147   1.000
    C236    C    0.41560   0.27208   0.67701   1.000
    C237    C    0.91559   0.27208   0.67701   1.000
    C238    C    0.39205   0.18721   0.71600   1.000
    C239    C    0.89205   0.18721   0.71606   1.000
    C240    C    0.38054   0.08044   0.67961   1.000
    C241    C    0.88052   0.08044   0.67961   1.000
    C242    C    0.39180   0.06042   0.60362   1.000
    C243    C    0.89178   0.06042   0.60361   1.000
    C244    C    0.41651   0.14616   0.56500   1.000
    C245    C    0.91649   0.14616   0.56509   1.000
    C246    C    0.05410   0.70219   0.74240   1.000
    C247    C    0.55410   0.70219   0.74242   1.000
    C248    C    0.10033   0.78381   0.80627   1.000
    C249    C    0.60031   0.78381   0.80628   1.000
    C250    C    0.12310   0.74789   0.86301   1.000
    C251    C    0.62309   0.74789   0.86301   1.000
    C252    C    0.16965   0.82239   0.91868   1.000
    C253    C    0.66963   0.82239   0.91869   1.000
    C254    C    0.19370   0.93544   0.91984   1.000
    C255    C    0.69369   0.93544   0.91980   1.000
    C256    C    0.17022   0.97190   0.86404   1.000
    C257    C    0.67020   0.97190   0.86405   1.000
    C258    C    0.12424   0.89636   0.80779   1.000
    C259    C    0.62422   0.89636   0.80779   1.000
    C260    C    0.39598   0.65441   0.55379   1.000
    C261    C    0.89597   0.65442   0.55300   1.000
    C262    C    0.33534   0.65432   0.55425   1.000
    C263    C    0.83532   0.65431   0.55425   1.000
    C264    C    0.29331   0.60666   0.60700   1.000
    C265    C    0.79330   0.60668   0.60701   1.000
    C266    C    0.31567   0.56183   0.65809   1.000
    C267    C    0.81566   0.56183   0.65808   1.000
    C268    C    0.37708   0.56535   0.65370   1.000
    C269    C    0.87706   0.56536   0.65379   1.000
    C270    C    0.22785   0.60294   0.60717   1.000
    C271    C    0.72784   0.60293   0.60716   1.000
    C272    C    0.21506   0.68315   0.58140   1.000
    C273    C    0.71505   0.68316   0.58148   1.000
    C274    C    0.15259   0.67466   0.57831   1.000
    C275    C    0.65258   0.67466   0.57831   1.000
    C276    C    0.11461   0.51636   0.62600   1.000
    C277    C    0.61460   0.51636   0.62600   1.000
    C278    C    0.17590   0.51912   0.63160   1.000
    C279    C    0.67588   0.51912   0.63169   1.000
    C280    C    0.28276   0.65399   0.93970   1.000
    C281    C    0.78272   0.65401   0.93970   1.000
    C282    C    0.30264   0.74710   0.89850   1.000
    C283    C    0.80266   0.74709   0.89849   1.000
    C284    C    0.27977   0.72778   0.82299   1.000
    C285    C    0.77975   0.72779   0.82299   1.000
    C286    C    0.29852   0.81266   0.78398   1.000
    C287    C    0.79852   0.81265   0.78397   1.000
    C288    C    0.34036   0.91954   0.82041   1.000
    C289    C    0.84034   0.91954   0.82042   1.000
    C290    C    0.36168   0.93969   0.89630   1.000
    C291    C    0.86169   0.93968   0.89638   1.000
    C292    C    0.34364   0.85394   0.93487   1.000
    C293    C    0.84363   0.85394   0.93487   1.000
    C294    C    0.20273   0.29734   0.75754   1.000
    C295    C    0.70269   0.29733   0.75753   1.000
    C296    C    0.20819   0.21580   0.69370   1.000
    C297    C    0.70820   0.21581   0.69370   1.000
    C298    C    0.24892   0.25186   0.63680   1.000
    C299    C    0.74890   0.25186   0.63687   1.000
    C300    C    0.25827   0.17751   0.58119   1.000
    C301    C    0.75827   0.17752   0.58120   1.000
    C302    C    0.22592   0.06445   0.58015   1.000
    C303    C    0.72590   0.06446   0.58015   1.000
    C304    C    0.18421   0.02785   0.63604   1.000
    C305    C    0.68421   0.02785   0.63605   1.000
    C306    C    0.17595   0.10324   0.69231   1.000
    C307    C    0.67593   0.10324   0.69230   1.000
    C308    C    0.06858   0.34565   0.94625   1.000
    C309    C    0.56858   0.34565   0.94625   1.000
    C310    C    0.00798   0.34570   0.94579   1.000
    C311    C    0.50798   0.34570   0.94579   1.000
    C312    C    0.48987   0.39317   0.89296   1.000
    C313    C    0.98986   0.39317   0.89296   1.000
    C314    C    0.03477   0.43796   0.84185   1.000
    C315    C    0.53477   0.43795   0.84184   1.000
    C316    C    0.09442   0.43446   0.84613   1.000
    C317    C    0.59441   0.43446   0.84610   1.000
    C318    C    0.42627   0.39685   0.89280   1.000
    C319    C    0.92626   0.39686   0.89280   1.000
    C320    C    0.37322   0.31665   0.91850   1.000
    C321    C    0.87321   0.31665   0.91854   1.000
    C322    C    0.31499   0.32507   0.92168   1.000
    C323    C    0.81498   0.32508   0.92169   1.000
    C324    C    0.35642   0.48322   0.87383   1.000
    C325    C    0.85641   0.48323   0.87383   1.000
    C326    C    0.41635   0.48053   0.86816   1.000
    C327    C    0.91634   0.48053   0.86815   1.000
    C328    C    0.08316   0.38998   0.39766   1.000
    C329    C    0.58315   0.38999   0.39766   1.000
    C330    C    0.39772   0.40876   0.40149   1.000
    C331    C    0.89771   0.40876   0.40149   1.000
    C332    C    0.14234   0.01185   0.28580   1.000
    C333    C    0.64238   0.01185   0.28584   1.000
    C334    C    0.25821   0.98248   0.02672   1.000
    C335    C    0.75821   0.98248   0.02671   1.000
    C336    C    0.38828   0.61015   0.10230   1.000
    C337    C    0.88827   0.61015   0.10229   1.000
    C338    C    0.19353   0.59177   0.09859   1.000
    C339    C    0.69352   0.59177   0.09859   1.000
    C340    C    0.13659   0.98829   0.21406   1.000
    C341    C    0.63652   0.98829   0.21407   1.000
    C342    C    0.26708   0.01766   0.47320   1.000
    C343    C    0.76700   0.01765   0.47324   1.000
    C344    C    0.41685   0.61010   0.60232   1.000
    C345    C    0.91683   0.61009   0.60232   1.000
    C346    C    0.10228   0.59130   0.59849   1.000
    C347    C    0.60227   0.59131   0.59849   1.000
    C348    C    0.35761   0.98821   0.71413   1.000
    C349    C    0.85760   0.98821   0.71413   1.000
    C350    C    0.24181   0.01759   0.97325   1.000
    C351    C    0.74178   0.01759   0.97326   1.000
    C352    C    0.11173   0.38992   0.89760   1.000
    C353    C    0.61172   0.38993   0.89760   1.000
    C354    C    0.30647   0.40830   0.90139   1.000
    C355    C    0.80646   0.40830   0.90139   1.000
    C356    C    0.36347   0.01178   0.78590   1.000
    C357    C    0.86347   0.01177   0.78590   1.000
    C358    C    0.23292   0.98241   0.52669   1.000
    C359    C    0.73297   0.98243   0.52674   1.000
    C360    C    0.04206   0.56261   0.40623   1.000
    C361    C    0.54203   0.56261   0.40622   1.000
    C362    C    0.47980   0.39472   0.25001   1.000
    C363    C    0.97980   0.39472   0.25001   1.000
    C364    C    0.44607   0.26313   0.31890   1.000
    C365    C    0.94606   0.26313   0.31890   1.000
    C366    C    0.02683   0.67466   0.50504   1.000
    C367    C    0.52680   0.67466   0.50503   1.000
    C368    C    0.26025   0.43775   0.09384   1.000
    C369    C    0.76022   0.43775   0.09385   1.000
    C370    C    0.28274   0.60597   0.25005   1.000
    C371    C    0.78271   0.60596   0.25004   1.000
    C372    C    0.31497   0.73746   0.18110   1.000
    C373    C    0.81495   0.73746   0.18109   1.000
    C374    C    0.18918   0.32524   0.99494   1.000
    C375    C    0.68915   0.32525   0.99495   1.000
    C376    C    0.45796   0.43746   0.59376   1.000
    C377    C    0.95795   0.43746   0.59376   1.000
    C378    C    0.02020   0.60536   0.74998   1.000
    C379    C    0.52018   0.60536   0.74998   1.000
    C380    C    0.05394   0.73694   0.68108   1.000
    C381    C    0.55392   0.73694   0.68108   1.000
    C382    C    0.47318   0.32541   0.49494   1.000
    C383    C    0.97317   0.32542   0.49494   1.000
    C384    C    0.23976   0.56232   0.90614   1.000
    C385    C    0.73977   0.56231   0.90613   1.000
    C386    C    0.21727   0.39411   0.74994   1.000
    C387    C    0.71727   0.39411   0.74995   1.000
    C388    C    0.18504   0.26260   0.81880   1.000
    C389    C    0.68504   0.26261   0.81889   1.000
    C390    C    0.31084   0.67483   0.00503   1.000
    C391    C    0.81084   0.67482   0.00500   1.000
    O392    O    0.80151   0.63855   0.05094   1.000
    O393    O    0.79678   0.66442   0.97235   1.000
    O394    O    0.30152   0.63856   0.05095   1.000
    O395    O    0.29680   0.66441   0.97237   1.000
    O396    O    0.14799   0.13879   0.03575   1.000
    O397    O    0.64797   0.13879   0.03574   1.000
    O398    O    0.00802   0.67153   0.03310   1.000
    O399    O    0.50802   0.67153   0.03310   1.000
    O400    O    0.92344   0.67199   0.03342   1.000
    O401    O    0.42345   0.67199   0.03342   1.000
    O402    O    0.78225   0.02355   0.05343   1.000
    O403    O    0.75000   0.00003   0.99998   1.000
    O404    O    0.28226   0.02356   0.05343   1.000
    O405    O    0.25001   0.00004   0.99999   1.000
    O406    O    0.32041   0.19127   0.06005   1.000
    O407    O    0.82039   0.19127   0.06023   1.000
    O408    O    0.96171   0.65439   0.05395   1.000
    O409    O    0.90984   0.63228   0.07800   1.000
    O410    O    0.46171   0.65439   0.05395   1.000
    O411    O    0.40984   0.63228   0.07801   1.000
    O412    O    0.00107   0.63063   0.08059   1.000
    O413    O    0.50107   0.63063   0.08059   1.000
    O414    O    0.20599   0.70604   0.06884   1.000
    O415    O    0.70598   0.70604   0.06884   1.000
    O416    O    0.73874   0.39191   0.07706   1.000
    O417    O    0.70729   0.29952   0.08088   1.000
    O418    O    0.70320   0.33566   0.02761   1.000
    O419    O    0.23874   0.39192   0.07707   1.000
    O420    O    0.20730   0.29952   0.08088   1.000
    O421    O    0.20321   0.33566   0.02761   1.000
    O422    O    0.62518   0.71854   0.07325   1.000
    O423    O    0.12519   0.71854   0.07325   1.000
    O424    O    0.67685   0.19955   0.08329   1.000
    O425    O    0.64734   0.10325   0.08435   1.000
    O426    O    0.17687   0.19954   0.08329   1.000
    O427    O    0.14735   0.10325   0.08435   1.000
    O428    O    0.12271   0.01854   0.08982   1.000
    O429    O    0.62268   0.01854   0.08982   1.000
    O430    O    0.15590   0.67921   0.07986   1.000
    O431    O    0.18927   0.63339   0.08844   1.000
    O432    O    0.65589   0.67921   0.07986   1.000
    O433    O    0.68927   0.63339   0.08844   1.000
    O434    O    0.31834   0.12116   0.08056   1.000
    O435    O    0.31806   0.04640   0.10803   1.000
    O436    O    0.81833   0.12116   0.08071   1.000
    O437    O    0.81805   0.04640   0.10803   1.000
    O438    O    0.35364   0.21493   0.10898   1.000
    O439    O    0.85362   0.21493   0.10913   1.000
    O440    O    0.10026   0.64331   0.09430   1.000
    O441    O    0.60025   0.64331   0.09430   1.000
    O442    O    0.27622   0.52002   0.09536   1.000
    O443    O    0.77620   0.52002   0.09536   1.000
    O444    O    0.24286   0.59703   0.09773   1.000
    O445    O    0.34024   0.60622   0.09959   1.000
    O446    O    0.30358   0.66987   0.13899   1.000
    O447    O    0.74285   0.59703   0.09773   1.000
    O448    O    0.84023   0.60622   0.09958   1.000
    O449    O    0.80357   0.66987   0.13898   1.000
    O450    O    0.16856   0.55431   0.11237   1.000
    O451    O    0.66855   0.55431   0.11237   1.000
    O452    O    0.20880   0.26263   0.13923   1.000
    O453    O    0.70878   0.26263   0.13923   1.000
    O454    O    0.89692   0.58788   0.12807   1.000
    O455    O    0.39693   0.58788   0.12807   1.000
    O456    O    0.14899   0.07045   0.14157   1.000
    O457    O    0.64897   0.07045   0.14157   1.000
    O458    O    0.04193   0.60505   0.10709   1.000
    O459    O    0.98768   0.58451   0.13257   1.000
    O460    O    0.54192   0.60505   0.10709   1.000
    O461    O    0.48767   0.58450   0.13255   1.000
    O462    O    0.57868   0.56137   0.11949   1.000
    O463    O    0.07869   0.56137   0.11949   1.000
    O464    O    0.61361   0.51819   0.12898   1.000
    O465    O    0.64808   0.48462   0.13510   1.000
    O466    O    0.11362   0.51819   0.12898   1.000
    O467    O    0.14809   0.48462   0.13510   1.000
    O468    O    0.56437   0.48802   0.14333   1.000
    O469    O    0.06438   0.48802   0.14332   1.000
    O470    O    0.82038   0.98438   0.13537   1.000
    O471    O    0.32038   0.98438   0.13538   1.000
    O472    O    0.85278   0.06594   0.16405   1.000
    O473    O    0.35279   0.06594   0.16405   1.000
    O474    O    0.38601   0.29594   0.13775   1.000
    O475    O    0.38830   0.23422   0.16533   1.000
    O476    O    0.88599   0.29594   0.13776   1.000
    O477    O    0.88828   0.23422   0.16533   1.000
    O478    O    0.93540   0.56386   0.15599   1.000
    O479    O    0.88747   0.54859   0.17309   1.000
    O480    O    0.43540   0.56386   0.15597   1.000
    O481    O    0.38747   0.54859   0.17309   1.000
    O482    O    0.47046   0.54254   0.17919   1.000
    O483    O    0.97046   0.54254   0.17921   1.000
    O484    O    0.73659   0.31384   0.19045   1.000
    O485    O    0.71084   0.22985   0.19649   1.000
    O486    O    0.23659   0.31385   0.19045   1.000
    O487    O    0.21086   0.22985   0.19649   1.000
    O488    O    0.64808   0.03441   0.19682   1.000
    O489    O    0.68055   0.13397   0.19778   1.000
    O490    O    0.14812   0.03441   0.19681   1.000
    O491    O    0.18056   0.13397   0.19777   1.000
    O492    O    0.80611   0.72010   0.21177   1.000
    O493    O    0.30612   0.72010   0.21177   1.000
    O494    O    0.38773   0.15999   0.19294   1.000
    O495    O    0.38478   0.09053   0.21436   1.000
    O496    O    0.88772   0.15999   0.19294   1.000
    O497    O    0.88477   0.09053   0.21436   1.000
    O498    O    0.92278   0.25707   0.22563   1.000
    O499    O    0.42280   0.25707   0.22563   1.000
    O500    O    0.13946   0.00007   0.24993   1.000
    O501    O    0.63945   0.00007   0.24995   1.000
    O502    O    0.21014   0.19435   0.24516   1.000
    O503    O    0.71012   0.19435   0.24517   1.000
    O504    O    0.61311   0.80596   0.25471   1.000
    O505    O    0.11313   0.80596   0.25473   1.000
    O506    O    0.29000   0.65435   0.24624   1.000
    O507    O    0.29454   0.74350   0.27436   1.000
    O508    O    0.79000   0.65435   0.24624   1.000
    O509    O    0.79453   0.74350   0.27432   1.000
    O510    O    0.96284   0.34630   0.25378   1.000
    O511    O    0.46286   0.34630   0.25378   1.000
    O512    O    0.44599   0.28050   0.28823   1.000
    O513    O    0.94597   0.28051   0.28823   1.000
    O514    O    0.83962   0.91007   0.28545   1.000
    O515    O    0.33963   0.91007   0.28545   1.000
    O516    O    0.61369   0.86624   0.30214   1.000
    O517    O    0.59616   0.77042   0.30344   1.000
    O518    O    0.11371   0.86624   0.30214   1.000
    O519    O    0.09618   0.77042   0.30344   1.000
    O520    O    0.13090   0.96573   0.30308   1.000
    O521    O    0.63092   0.96574   0.30310   1.000
    O522    O    0.08003   0.68648   0.30950   1.000
    O523    O    0.58002   0.68648   0.30950   1.000
    O524    O    0.69942   0.45790   0.32085   1.000
    O525    O    0.19943   0.45790   0.32085   1.000
    O526    O    0.80791   0.84055   0.30693   1.000
    O527    O    0.77143   0.76624   0.33465   1.000
    O528    O    0.30793   0.84055   0.30697   1.000
    O529    O    0.27144   0.76624   0.33469   1.000
    O530    O    0.31992   0.93453   0.33580   1.000
    O531    O    0.81990   0.93453   0.33580   1.000
    O532    O    0.61338   0.45179   0.32698   1.000
    O533    O    0.11339   0.45179   0.32698   1.000
    O534    O    0.46854   0.33064   0.36102   1.000
    O535    O    0.96853   0.33064   0.36102   1.000
    O536    O    0.61382   0.92964   0.35836   1.000
    O537    O    0.11383   0.92963   0.35836   1.000
    O538    O    0.07780   0.73759   0.36074   1.000
    O539    O    0.57778   0.73759   0.36073   1.000
    O540    O    0.15363   0.43648   0.34404   1.000
    O541    O    0.19551   0.41582   0.36743   1.000
    O542    O    0.65362   0.43648   0.34404   1.000
    O543    O    0.69550   0.41582   0.36743   1.000
    O544    O    0.82064   0.51248   0.35679   1.000
    O545    O    0.32066   0.51248   0.35681   1.000
    O546    O    0.60303   0.41235   0.37192   1.000
    O547    O    0.10304   0.41235   0.37192   1.000
    O548    O    0.90607   0.51599   0.36506   1.000
    O549    O    0.40608   0.51599   0.36506   1.000
    O550    O    0.23834   0.70445   0.36237   1.000
    O551    O    0.73834   0.70445   0.36237   1.000
    O552    O    0.24641   0.78539   0.39094   1.000
    O553    O    0.74640   0.78539   0.39094   1.000
    O554    O    0.82821   0.01602   0.36442   1.000
    O555    O    0.79492   0.95392   0.39187   1.000
    O556    O    0.32824   0.01602   0.36444   1.000
    O557    O    0.29494   0.95392   0.39188   1.000
    O558    O    0.85474   0.48233   0.37113   1.000
    O559    O    0.79812   0.43904   0.38055   1.000
    O560    O    0.35475   0.48233   0.37113   1.000
    O561    O    0.29813   0.43904   0.38055   1.000
    O562    O    0.39156   0.44624   0.38773   1.000
    O563    O    0.89155   0.44624   0.38773   1.000
    O564    O    0.73941   0.39526   0.39288   1.000
    O565    O    0.77853   0.35702   0.40565   1.000
    O566    O    0.23942   0.39526   0.39289   1.000
    O567    O    0.27855   0.35702   0.40565   1.000
    O568    O    0.68567   0.36957   0.41934   1.000
    O569    O    0.18568   0.36958   0.41934   1.000
    O570    O    0.61344   0.98144   0.41012   1.000
    O571    O    0.59584   0.89678   0.41562   1.000
    O572    O    0.11344   0.98144   0.41012   1.000
    O573    O    0.09584   0.89678   0.41562   1.000
    O574    O    0.03708   0.39407   0.40040   1.000
    O575    O    0.09359   0.36781   0.42192   1.000
    O576    O    0.53708   0.39407   0.40040   1.000
    O577    O    0.59358   0.36782   0.42192   1.000
    O578    O    0.57732   0.80054   0.41669   1.000
    O579    O    0.55791   0.70063   0.41913   1.000
    O580    O    0.07735   0.80055   0.41670   1.000
    O581    O    0.05792   0.70063   0.41913   1.000
    O582    O    0.44436   0.40346   0.40232   1.000
    O583    O    0.37257   0.36709   0.41157   1.000
    O584    O    0.94435   0.40346   0.40232   1.000
    O585    O    0.87256   0.36709   0.41154   1.000
    O586    O    0.01653   0.48038   0.40469   1.000
    O587    O    0.98209   0.36178   0.44904   1.000
    O588    O    0.51652   0.48038   0.40468   1.000
    O589    O    0.48209   0.36178   0.44904   1.000
    O590    O    0.54335   0.60835   0.42298   1.000
    O591    O    0.04335   0.60834   0.42298   1.000
    O592    O    0.81617   0.32116   0.42004   1.000
    O593    O    0.76570   0.28173   0.42662   1.000
    O594    O    0.31618   0.32116   0.42008   1.000
    O595    O    0.26572   0.28174   0.42662   1.000
    O596    O    0.75789   0.87909   0.41930   1.000
    O597    O    0.72498   0.80890   0.43989   1.000
    O598    O    0.25791   0.87909   0.41931   1.000
    O599    O    0.22500   0.80890   0.43990   1.000
    O600    O    0.27058   0.97664   0.44651   1.000
    O601    O    0.77054   0.97663   0.44653   1.000
    O602    O    0.85280   0.29436   0.43105   1.000
    O603    O    0.35281   0.29436   0.43108   1.000
    O604    O    0.07878   0.86119   0.46424   1.000
    O605    O    0.57877   0.86119   0.46424   1.000
    O606    O    0.03574   0.66437   0.47239   1.000
    O607    O    0.53573   0.66437   0.47239   1.000
    O608    O    0.13435   0.34570   0.44595   1.000
    O609    O    0.17204   0.32857   0.46679   1.000
    O610    O    0.63433   0.34570   0.44595   1.000
    O611    O    0.67203   0.32858   0.46679   1.000
    O612    O    0.58719   0.32801   0.46645   1.000
    O613    O    0.08721   0.32801   0.46645   1.000
    O614    O    0.25000   0.00004   0.49995   1.000
    O615    O    0.74999   0.00004   0.49999   1.000
    O616    O    0.46425   0.33570   0.52758   1.000
    O617    O    0.96424   0.33570   0.52758   1.000
    O618    O    0.51789   0.63829   0.55093   1.000
    O619    O    0.01791   0.63829   0.55092   1.000
    O620    O    0.92121   0.13888   0.53573   1.000
    O621    O    0.42123   0.13888   0.53568   1.000
    O622    O    0.82795   0.67149   0.53318   1.000
    O623    O    0.32796   0.67149   0.53318   1.000
    O624    O    0.91278   0.67206   0.53312   1.000
    O625    O    0.41280   0.67205   0.53352   1.000
    O626    O    0.22942   0.02343   0.55342   1.000
    O627    O    0.72944   0.02344   0.55345   1.000
    O628    O    0.27501   0.19118   0.56008   1.000
    O629    O    0.77500   0.19118   0.56009   1.000
    O630    O    0.86564   0.65437   0.55362   1.000
    O631    O    0.90640   0.63226   0.57766   1.000
    O632    O    0.36566   0.65437   0.55402   1.000
    O633    O    0.40641   0.63226   0.57805   1.000
    O634    O    0.31432   0.63049   0.58062   1.000
    O635    O    0.81431   0.63049   0.58063   1.000
    O636    O    0.14719   0.70571   0.56889   1.000
    O637    O    0.64718   0.70571   0.56889   1.000
    O638    O    0.95663   0.39172   0.57699   1.000
    O639    O    0.94206   0.29944   0.58085   1.000
    O640    O    0.45664   0.39172   0.57699   1.000
    O641    O    0.44207   0.29943   0.58085   1.000
    O642    O    0.42266   0.19952   0.58323   1.000
    O643    O    0.40416   0.10329   0.58431   1.000
    O644    O    0.92265   0.19953   0.58328   1.000
    O645    O    0.90414   0.10329   0.58435   1.000
    O646    O    0.23428   0.71833   0.57331   1.000
    O647    O    0.73427   0.71833   0.57335   1.000
    O648    O    0.88653   0.01862   0.58984   1.000
    O649    O    0.38656   0.01863   0.58985   1.000
    O650    O    0.68381   0.67891   0.57990   1.000
    O651    O    0.62742   0.63298   0.58840   1.000
    O652    O    0.18383   0.67891   0.57986   1.000
    O653    O    0.12744   0.63298   0.58840   1.000
    O654    O    0.74208   0.12099   0.58067   1.000
    O655    O    0.70506   0.04615   0.60810   1.000
    O656    O    0.24209   0.12098   0.58067   1.000
    O657    O    0.20506   0.04615   0.60809   1.000
    O658    O    0.25359   0.21469   0.60899   1.000
    O659    O    0.75358   0.21469   0.60903   1.000
    O660    O    0.22146   0.64304   0.59428   1.000
    O661    O    0.72144   0.64305   0.59432   1.000
    O662    O    0.98347   0.51969   0.59528   1.000
    O663    O    0.48347   0.51969   0.59529   1.000
    O664    O    0.05564   0.59661   0.59764   1.000
    O665    O    0.96291   0.60601   0.59956   1.000
    O666    O    0.03147   0.66943   0.63894   1.000
    O667    O    0.55563   0.59662   0.59766   1.000
    O668    O    0.46292   0.60601   0.59957   1.000
    O669    O    0.53145   0.66943   0.63895   1.000
    O670    O    0.60843   0.55383   0.61224   1.000
    O671    O    0.10845   0.55383   0.61224   1.000
    O672    O    0.42221   0.26248   0.63923   1.000
    O673    O    0.92220   0.26248   0.63924   1.000
    O674    O    0.89695   0.58772   0.62805   1.000
    O675    O    0.39696   0.58772   0.62801   1.000
    O676    O    0.88615   0.07043   0.64161   1.000
    O677    O    0.38617   0.07043   0.64162   1.000
    O678    O    0.26058   0.60480   0.60708   1.000
    O679    O    0.30449   0.58425   0.63255   1.000
    O680    O    0.76057   0.60481   0.60708   1.000
    O681    O    0.80448   0.58425   0.63255   1.000
    O682    O    0.70186   0.56103   0.61943   1.000
    O683    O    0.20187   0.56103   0.61938   1.000
    O684    O    0.64524   0.51774   0.62884   1.000
    O685    O    0.59391   0.48408   0.63491   1.000
    O686    O    0.14525   0.51774   0.62880   1.000
    O687    O    0.09392   0.48408   0.63490   1.000
    O688    O    0.17935   0.48759   0.64312   1.000
    O689    O    0.67933   0.48759   0.64316   1.000
    O690    O    0.67176   0.98405   0.63553   1.000
    O691    O    0.17176   0.98405   0.63553   1.000
    O692    O    0.18008   0.06555   0.66418   1.000
    O693    O    0.68007   0.06555   0.66417   1.000
    O694    O    0.26166   0.29562   0.63757   1.000
    O695    O    0.22856   0.23383   0.66525   1.000
    O696    O    0.76164   0.29562   0.63760   1.000
    O697    O    0.72855   0.23383   0.66529   1.000
    O698    O    0.34637   0.56359   0.65589   1.000
    O699    O    0.38661   0.54827   0.67295   1.000
    O700    O    0.84636   0.56359   0.65593   1.000
    O701    O    0.88660   0.54828   0.67299   1.000
    O702    O    0.80056   0.54217   0.67913   1.000
    O703    O    0.30057   0.54217   0.67913   1.000
    O704    O    0.91996   0.31359   0.69048   1.000
    O705    O    0.90382   0.22965   0.69654   1.000
    O706    O    0.41997   0.31358   0.69045   1.000
    O707    O    0.40383   0.22964   0.69650   1.000
    O708    O    0.36907   0.03433   0.69687   1.000
    O709    O    0.38630   0.13383   0.69780   1.000
    O710    O    0.86906   0.03433   0.69687   1.000
    O711    O    0.88628   0.13383   0.69783   1.000
    O712    O    0.05402   0.71957   0.71174   1.000
    O713    O    0.55401   0.71956   0.71175   1.000
    O714    O    0.69207   0.15952   0.69300   1.000
    O715    O    0.66035   0.09000   0.71452   1.000
    O716    O    0.19207   0.15952   0.69300   1.000
    O717    O    0.16036   0.09000   0.71450   1.000
    O718    O    0.20546   0.25657   0.72562   1.000
    O719    O    0.70544   0.25657   0.72562   1.000
    O720    O    0.86054   0.99999   0.75001   1.000
    O721    O    0.36054   0.99999   0.75001   1.000
    O722    O    0.38687   0.19410   0.74521   1.000
    O723    O    0.88687   0.19410   0.74524   1.000
    O724    O    0.78986   0.80572   0.75478   1.000
    O725    O    0.28987   0.80571   0.75480   1.000
    O726    O    0.03715   0.65378   0.74619   1.000
    O727    O    0.07722   0.74300   0.77433   1.000
    O728    O    0.53714   0.65377   0.74620   1.000
    O729    O    0.57720   0.74300   0.77435   1.000
    O730    O    0.21000   0.34573   0.75374   1.000
    O731    O    0.70998   0.34572   0.75374   1.000
    O732    O    0.69387   0.27997   0.78821   1.000
    O733    O    0.19389   0.27997   0.78817   1.000
    O734    O    0.11524   0.90954   0.78560   1.000
    O735    O    0.61522   0.90954   0.78560   1.000
    O736    O    0.81943   0.86610   0.80219   1.000
    O737    O    0.78913   0.77022   0.80348   1.000
    O738    O    0.31944   0.86610   0.80219   1.000
    O739    O    0.28915   0.77022   0.80348   1.000
    O740    O    0.35192   0.96566   0.80315   1.000
    O741    O    0.85191   0.96566   0.80316   1.000
    O742    O    0.26341   0.68622   0.80953   1.000
    O743    O    0.76339   0.68623   0.80953   1.000
    O744    O    0.52953   0.45753   0.82076   1.000
    O745    O    0.02954   0.45754   0.82077   1.000
    O746    O    0.11229   0.84009   0.80703   1.000
    O747    O    0.11172   0.76585   0.83464   1.000
    O748    O    0.61227   0.84009   0.80703   1.000
    O749    O    0.61170   0.76585   0.83464   1.000
    O750    O    0.61252   0.45147   0.82685   1.000
    O751    O    0.11253   0.45148   0.82689   1.000
    O752    O    0.64721   0.93413   0.83592   1.000
    O753    O    0.14723   0.93413   0.83592   1.000
    O754    O    0.19643   0.33019   0.86095   1.000
    O755    O    0.69642   0.33020   0.86099   1.000
    O756    O    0.35102   0.92962   0.85835   1.000
    O757    O    0.85101   0.92961   0.85840   1.000
    O758    O    0.79120   0.73744   0.86074   1.000
    O759    O    0.29121   0.73744   0.86074   1.000
    O760    O    0.56459   0.43621   0.84397   1.000
    O761    O    0.51232   0.41556   0.86740   1.000
    O762    O    0.06460   0.43621   0.84399   1.000
    O763    O    0.01232   0.41556   0.86740   1.000
    O764    O    0.43562   0.51205   0.85665   1.000
    O765    O    0.93561   0.51205   0.85664   1.000
    O766    O    0.60307   0.41219   0.87185   1.000
    O767    O    0.10307   0.41219   0.87187   1.000
    O768    O    0.35191   0.51545   0.86488   1.000
    O769    O    0.85190   0.51546   0.86488   1.000
    O770    O    0.61399   0.70413   0.86222   1.000
    O771    O    0.11400   0.70413   0.86222   1.000
    O772    O    0.14637   0.78514   0.89084   1.000
    O773    O    0.64636   0.78514   0.89085   1.000
    O774    O    0.17964   0.01569   0.86459   1.000
    O775    O    0.18196   0.95367   0.89194   1.000
    O776    O    0.67962   0.01569   0.86459   1.000
    O777    O    0.68195   0.95367   0.89192   1.000
    O778    O    0.88637   0.48188   0.87099   1.000
    O779    O    0.92130   0.43870   0.88047   1.000
    O780    O    0.38638   0.48188   0.87099   1.000
    O781    O    0.42131   0.43869   0.88048   1.000
    O782    O    0.33144   0.44576   0.88761   1.000
    O783    O    0.83143   0.44576   0.88761   1.000
    O784    O    0.45807   0.39501   0.89288   1.000
    O785    O    0.39975   0.35675   0.90565   1.000
    O786    O    0.95806   0.39501   0.89288   1.000
    O787    O    0.89974   0.35676   0.90567   1.000
    O788    O    0.99892   0.36943   0.91937   1.000
    O789    O    0.49892   0.36943   0.91937   1.000
    O790    O    0.37731   0.98152   0.91010   1.000
    O791    O    0.35266   0.89682   0.91559   1.000
    O792    O    0.87732   0.98152   0.91014   1.000
    O793    O    0.85266   0.89681   0.91563   1.000
    O794    O    0.65976   0.39385   0.90035   1.000
    O795    O    0.59015   0.36779   0.92193   1.000
    O796    O    0.15977   0.39386   0.90035   1.000
    O797    O    0.09016   0.36778   0.92193   1.000
    O798    O    0.82314   0.80052   0.91668   1.000
    O799    O    0.79269   0.70055   0.91909   1.000
    O800    O    0.32314   0.80052   0.91669   1.000
    O801    O    0.29270   0.70055   0.91910   1.000
    O802    O    0.25714   0.40304   0.90224   1.000
    O803    O    0.31073   0.36668   0.91153   1.000
    O804    O    0.75713   0.40304   0.90224   1.000
    O805    O    0.81072   0.36669   0.91154   1.000
    O806    O    0.22379   0.48005   0.90462   1.000
    O807    O    0.19850   0.36151   0.94902   1.000
    O808    O    0.72378   0.48005   0.90461   1.000
    O809    O    0.69848   0.36151   0.94903   1.000
    O810    O    0.76124   0.60816   0.92291   1.000
    O811    O    0.26126   0.60815   0.92292   1.000
    O812    O    0.34410   0.32086   0.92009   1.000
    O813    O    0.37481   0.28153   0.92670   1.000
    O814    O    0.84410   0.32086   0.92012   1.000
    O815    O    0.87480   0.28153   0.92673   1.000
    O816    O    0.18168   0.87891   0.91926   1.000
    O817    O    0.17961   0.80880   0.93974   1.000
    O818    O    0.68166   0.87891   0.91924   1.000
    O819    O    0.67959   0.80880   0.93975   1.000
    O820    O    0.71774   0.97652   0.94653   1.000
    O821    O    0.21776   0.97651   0.94654   1.000
    O822    O    0.29401   0.29403   0.93113   1.000
    O823    O    0.79400   0.29403   0.93110   1.000
    O824    O    0.85201   0.86128   0.96423   1.000
    O825    O    0.35202   0.86128   0.96423   1.000
    O826    O    0.03829   0.34567   0.94602   1.000
    O827    O    0.99197   0.32853   0.96687   1.000
    O828    O    0.53828   0.34567   0.94602   1.000
    O829    O    0.49197   0.32853   0.96687   1.000
    O830    O    0.57655   0.32808   0.96652   1.000
    O831    O    0.07655   0.32807   0.96654   1.000
loop_
    _geom_bond_atom_site_label_1
    _geom_bond_atom_site_label_2
    _geom_bond_distance
    _geom_bond_site_symmetry_2
    _ccdc_geom_bond_type
    C391   O392      1.02525      .   S
    C3     O392      1.02525      .   S
    C391   O393      0.63851  1_554   S
    C281   O393      0.63851      .   S
    C390   O394      1.02504      .   S
    C2     O394      1.02504      .   S
    C390   O395      0.63851  1_554   S
    C280   O395      0.63851      .   S
    C46    O396      0.54447      .   S
    C196   O396      0.54447      .   S
    C47    O397      0.54445      .   S
    C197   O397      0.54445      .   S
    C58    O398      0.54486      .   S
    C215   O398      0.54486  1_655   S
    C59    O399      0.54479      .   S
    C214   O399      0.54479      .   S
    C57    O400      0.54462      .   S
    C213   O400      0.54462      .   S
    C56    O401      0.54465      .   S
    C212   O401      0.54465      .   S
    C335   O402      0.70638  1_565   S
    C159   O402      0.70638      .   S
    C335   O403      0.64014  1_564   S
    C351   O403      0.64014      .   S
    C334   O404      0.70635  1_565   S
    C158   O404      0.70635      .   S
    C334   O405      0.64015  1_564   S
    C350   O405      0.64015      .   S
    C18    O406      0.54148      .   S
    C156   O406      0.54148      .   S
    C19    O407      0.54310      .   S
    C157   O407      0.54310      .   S
    C213   O408      0.69450      .   S
    C215   O408      0.69450      .   S
    C213   O409      0.67350      .   S
    C337   O409      0.67350      .   S
    C212   O410      0.69450      .   S
    C214   O410      0.69450      .   S
    C212   O411      0.67355      .   S
    C336   O411      0.67355      .   S
    C215   O412      0.70210  1_655   S
    C216   O412      0.70210      .   S
    C214   O413      0.70205      .   S
    C217   O413      0.70205      .   S
    C66    O414      0.54472      .   S
    C226   O414      0.54472      .   S
    C67    O415      0.54472      .   S
    C227   O415      0.54472      .   S
    C185   O416      0.63492      .   S
    C369   O416      0.63492      .   S
    C185   O417      0.75132      .   S
    C187   O417      0.75132      .   S
    C185   O418      0.63855      .   S
    C375   O418      0.63855  1_556   S
    C184   O419      0.63493      .   S
    C368   O419      0.63493      .   S
    C184   O420      0.75133      .   S
    C186   O420      0.75133      .   S
    C184   O421      0.63855      .   S
    C374   O421      0.63855  1_556   S
    C65    O422      0.54443      .   S
    C225   O422      0.54443      .   S
    C64    O423      0.54443      .   S
    C224   O423      0.54443      .   S
    C197   O424      0.70148      .   S
    C187   O424      0.70148      .   S
    C197   O425      0.69535      .   S
    C195   O425      0.69535      .   S
    C196   O426      0.70149      .   S
    C186   O426      0.70149      .   S
    C196   O427      0.69531      .   S
    C194   O427      0.69531      .   S
    C44    O428      0.54480  1_565   S
    C194   O428      0.54480      .   S
    C45    O429      0.54480  1_565   S
    C195   O429      0.54480      .   S
    C226   O430      0.69360      .   S
    C224   O430      0.69360      .   S
    C226   O431      0.67415      .   S
    C338   O431      0.67415      .   S
    C227   O432      0.69360      .   S
    C225   O432      0.69360      .   S
    C227   O433      0.67416      .   S
    C339   O433      0.67416      .   S
    C158   O434      0.70478      .   S
    C156   O434      0.70478      .   S
    C158   O435      0.70321      .   S
    C160   O435      0.70321      .   S
    C159   O436      0.70430      .   S
    C157   O436      0.70430      .   S
    C159   O437      0.70314      .   S
    C161   O437      0.70314      .   S
    C156   O438      0.69496      .   S
    C154   O438      0.69496      .   S
    C157   O439      0.69339      .   S
    C155   O439      0.69339      .   S
    C224   O440      0.70213      .   S
    C222   O440      0.70213      .   S
    C225   O441      0.70212      .   S
    C223   O441      0.70212      .   S
    C368   O442      1.02592      .   S
    C2     O442      1.02592      .   S
    C369   O443      1.02590      .   S
    C3     O443      1.02590      .   S
    C2     O444      1.10243      .   S
    C338   O444      1.10243      .   S
    C2     O445      1.08005      .   S
    C336   O445      1.08005      .   S
    C2     O446      1.02800      .   S
    C372   O446      1.02800      .   S
    C3     O447      1.10241      .   S
    C339   O447      1.10241      .   S
    C3     O448      1.08011      .   S
    C337   O448      1.08011      .   S
    C3     O449      1.02792      .   S
    C373   O449      1.02792      .   S
    C338   O450      0.67402      .   S
    C228   O450      0.67402      .   S
    C339   O451      0.67402      .   S
    C229   O451      0.67402      .   S
    C186   O452      0.70406      .   S
    C188   O452      0.70406      .   S
    C187   O453      0.70413      .   S
    C189   O453      0.70413      .   S
    C337   O454      0.67445      .   S
    C221   O454      0.67445      .   S
    C336   O455      0.67443      .   S
    C220   O455      0.67443      .   S
    C194   O456      0.70228      .   S
    C192   O456      0.70228      .   S
    C195   O457      0.70229      .   S
    C193   O457      0.70229      .   S
    C216   O458      0.73969      .   S
    C222   O458      0.73969      .   S
    C216   O459      0.70260  1_455   S
    C219   O459      0.70260      .   S
    C217   O460      0.73967      .   S
    C223   O460      0.73967      .   S
    C217   O461      0.70229      .   S
    C218   O461      0.70229      .   S
    C223   O462      0.70285      .   S
    C231   O462      0.70285      .   S
    C222   O463      0.70285      .   S
    C230   O463      0.70285      .   S
    C229   O464      0.69621      .   S
    C231   O464      0.69621      .   S
    C229   O465      0.54501      .   S
    C69    O465      0.54501      .   S
    C228   O466      0.69622      .   S
    C230   O466      0.69622      .   S
    C228   O467      0.54501      .   S
    C68    O467      0.54501      .   S
    C231   O468      0.54616      .   S
    C71    O468      0.54616      .   S
    C230   O469      0.54611      .   S
    C70    O469      0.54611      .   S
    C21    O470      0.54519      .   S
    C161   O470      0.54519  1_545   S
    C20    O471      0.54519      .   S
    C160   O471      0.54519  1_545   S
    C161   O472      0.69567      .   S
    C163   O472      0.69567      .   S
    C160   O473      0.69567      .   S
    C162   O473      0.69567      .   S
    C154   O474      0.54449      .   S
    C16    O474      0.54449      .   S
    C154   O475      0.70333      .   S
    C152   O475      0.70333      .   S
    C155   O476      0.54451      .   S
    C17    O476      0.54451      .   S
    C155   O477      0.70326      .   S
    C153   O477      0.70326      .   S
    C221   O478      0.69511      .   S
    C219   O478      0.69511      .   S
    C221   O479      0.54501      .   S
    C63    O479      0.54501      .   S
    C220   O480      0.69508      .   S
    C218   O480      0.69508      .   S
    C220   O481      0.54499      .   S
    C62    O481      0.54499      .   S
    C218   O482      0.54581      .   S
    C60    O482      0.54581      .   S
    C219   O483      0.54556      .   S
    C61    O483      0.54556      .   S
    C189   O484      0.54463      .   S
    C41    O484      0.54463      .   S
    C189   O485      0.69323      .   S
    C191   O485      0.69323      .   S
    C188   O486      0.54464      .   S
    C40    O486      0.54464      .   S
    C188   O487      0.69324      .   S
    C190   O487      0.69324      .   S
    C193   O488      0.70719      .   S
    C341   O488      0.70719  1_565   S
    C193   O489      0.70414      .   S
    C191   O489      0.70414      .   S
    C192   O490      0.70718      .   S
    C340   O490      0.70718  1_565   S
    C192   O491      0.70414      .   S
    C190   O491      0.70414      .   S
    C373   O492      0.64500      .   S
    C199   O492      0.64500      .   S
    C372   O493      0.64494      .   S
    C198   O493      0.64494      .   S
    C162   O494      0.70063      .   S
    C152   O494      0.70063      .   S
    C162   O495      0.54364      .   S
    C22    O495      0.54364      .   S
    C163   O496      0.70064      .   S
    C153   O496      0.70064      .   S
    C163   O497      0.54368      .   S
    C23    O497      0.54368      .   S
    C153   O498      0.75236      .   S
    C151   O498      0.75236      .   S
    C152   O499      0.75231      .   S
    C150   O499      0.75231      .   S
    C340   O500      0.63941  1_565   S
    C332   O500      0.63941      .   S
    C341   O501      0.63968  1_565   S
    C333   O501      0.63968      .   S
    C190   O502      0.54388      .   S
    C42    O502      0.54388      .   S
    C191   O503      0.54382      .   S
    C43    O503      0.54382      .   S
    C11    O504      0.54423      .   S
    C143   O504      0.54423      .   S
    C10    O505      0.54386      .   S
    C142   O505      0.54386      .   S
    C198   O506      0.63044      .   S
    C370   O506      0.63044      .   S
    C198   O507      0.75245      .   S
    C200   O507      0.75245      .   S
    C199   O508      0.63042      .   S
    C371   O508      0.63042      .   S
    C199   O509      0.75206      .   S
    C201   O509      0.75206      .   S
    C363   O510      0.63041      .   S
    C151   O510      0.63041      .   S
    C362   O511      0.63040      .   S
    C150   O511      0.63040      .   S
    C150   O512      0.64499      .   S
    C364   O512      0.64499      .   S
    C151   O513      0.64494      .   S
    C365   O513      0.64494      .   S
    C55    O514      0.54366      .   S
    C211   O514      0.54366      .   S
    C54    O515      0.54364      .   S
    C210   O515      0.54364      .   S
    C143   O516      0.70414      .   S
    C145   O516      0.70414      .   S
    C143   O517      0.69322      .   S
    C141   O517      0.69322      .   S
    C142   O518      0.70416      .   S
    C144   O518      0.70416      .   S
    C142   O519      0.69323      .   S
    C140   O519      0.69323      .   S
    C332   O520      0.70744  1_545   S
    C144   O520      0.70744      .   S
    C333   O521      0.70724  1_545   S
    C145   O521      0.70724      .   S
    C8     O522      0.54461      .   S
    C140   O522      0.54461      .   S
    C9     O523      0.54461      .   S
    C141   O523      0.54461      .   S
    C29    O524      0.54551      .   S
    C171   O524      0.54551      .   S
    C28    O525      0.54554      .   S
    C170   O525      0.54554      .   S
    C201   O526      0.70053      .   S
    C211   O526      0.70053      .   S
    C201   O527      0.70379      .   S
    C203   O527      0.70379      .   S
    C200   O528      0.70065      .   S
    C210   O528      0.70065      .   S
    C200   O529      0.70332      .   S
    C202   O529      0.70332      .   S
    C210   O530      0.69571      .   S
    C208   O530      0.69571      .   S
    C211   O531      0.69568      .   S
    C209   O531      0.69568      .   S
    C31    O532      0.54502      .   S
    C173   O532      0.54502      .   S
    C30    O533      0.54501      .   S
    C172   O533      0.54501      .   S
    C364   O534      1.02749      .   S
    C0     O534      1.02749      .   S
    C365   O535      1.02749      .   S
    C1     O535      1.02749      .   S
    C145   O536      0.70232      .   S
    C147   O536      0.70232      .   S
    C144   O537      0.70231      .   S
    C146   O537      0.70231      .   S
    C140   O538      0.70417      .   S
    C138   O538      0.70417      .   S
    C141   O539      0.70413      .   S
    C139   O539      0.70413      .   S
    C170   O540      0.69510      .   S
    C172   O540      0.69510      .   S
    C170   O541      0.70254      .   S
    C168   O541      0.70254      .   S
    C171   O542      0.69511      .   S
    C173   O542      0.69511      .   S
    C171   O543      0.70253      .   S
    C169   O543      0.70253      .   S
    C39    O544      0.54632      .   S
    C183   O544      0.54632      .   S
    C38    O545      0.54610      .   S
    C182   O545      0.54610      .   S
    C173   O546      0.67440      .   S
    C329   O546      0.67440      .   S
    C172   O547      0.67444      .   S
    C328   O547      0.67444      .   S
    C37    O548      0.54503      .   S
    C181   O548      0.54503      .   S
    C36    O549      0.54500      .   S
    C180   O549      0.54500      .   S
    C48    O550      0.54447      .   S
    C202   O550      0.54447      .   S
    C49    O551      0.54447      .   S
    C203   O551      0.54447      .   S
    C202   O552      0.69338      .   S
    C204   O552      0.69338      .   S
    C203   O553      0.69338      .   S
    C205   O553      0.69338      .   S
    C209   O554      0.54518  1_565   S
    C53    O554      0.54518      .   S
    C209   O555      0.70323      .   S
    C207   O555      0.70323      .   S
    C208   O556      0.54519  1_565   S
    C52    O556      0.54519      .   S
    C208   O557      0.70321      .   S
    C206   O557      0.70321      .   S
    C183   O558      0.69622      .   S
    C181   O558      0.69622      .   S
    C183   O559      0.70280      .   S
    C175   O559      0.70280      .   S
    C182   O560      0.69620      .   S
    C180   O560      0.69620      .   S
    C182   O561      0.70285      .   S
    C174   O561      0.70285      .   S
    C180   O562      0.67404      .   S
    C330   O562      0.67404      .   S
    C181   O563      0.67402      .   S
    C331   O563      0.67402      .   S
    C175   O564      0.73967      .   S
    C169   O564      0.73967      .   S
    C175   O565      0.70216      .   S
    C177   O565      0.70216      .   S
    C174   O566      0.73968      .   S
    C168   O566      0.73968      .   S
    C174   O567      0.70215      .   S
    C176   O567      0.70215      .   S
    C169   O568      0.70207      .   S
    C167   O568      0.70207      .   S
    C168   O569      0.70198      .   S
    C166   O569      0.70198      .   S
    C147   O570      0.54478      .   S
    C13    O570      0.54478  1_545   S
    C147   O571      0.69534      .   S
    C149   O571      0.69534      .   S
    C146   O572      0.54477      .   S
    C12    O572      0.54477  1_545   S
    C146   O573      0.69533      .   S
    C148   O573      0.69533      .   S
    C328   O574      1.08130      .   S
    C1     O574      1.08130  1_655   S
    C328   O575      0.67349      .   S
    C164   O575      0.67349      .   S
    C329   O576      1.08108      .   S
    C0     O576      1.08108      .   S
    C329   O577      0.67352      .   S
    C165   O577      0.67352      .   S
    C139   O578      0.70150      .   S
    C149   O578      0.70150      .   S
    C139   O579      0.75131      .   S
    C137   O579      0.75131      .   S
    C138   O580      0.70147      .   S
    C148   O580      0.70147      .   S
    C138   O581      0.75133      .   S
    C136   O581      0.75133      .   S
    C330   O582      1.10158      .   S
    C0     O582      1.10158      .   S
    C330   O583      0.67413      .   S
    C178   O583      0.67413      .   S
    C331   O584      1.10164      .   S
    C1     O584      1.10164      .   S
    C331   O585      0.67389      .   S
    C179   O585      0.67389      .   S
    C1     O586      1.02598  1_655   S
    C360   O586      1.02598      .   S
    C1     O587      1.02525      .   S
    C383   O587      1.02525      .   S
    C0     O588      1.02595      .   S
    C361   O588      1.02595      .   S
    C0     O589      1.02527      .   S
    C382   O589      1.02527      .   S
    C361   O590      0.63504      .   S
    C137   O590      0.63504      .   S
    C360   O591      0.63505      .   S
    C136   O591      0.63505      .   S
    C177   O592      0.69355      .   S
    C179   O592      0.69355      .   S
    C177   O593      0.54445      .   S
    C33    O593      0.54445      .   S
    C176   O594      0.69357      .   S
    C178   O594      0.69357      .   S
    C176   O595      0.54443      .   S
    C32    O595      0.54443      .   S
    C205   O596      0.70428      .   S
    C207   O596      0.70428      .   S
    C205   O597      0.54307      .   S
    C51    O597      0.54307      .   S
    C204   O598      0.70429      .   S
    C206   O598      0.70429      .   S
    C204   O599      0.54307      .   S
    C50    O599      0.54307      .   S
    C206   O600      0.70594      .   S
    C342   O600      0.70594  1_545   S
    C207   O601      0.70639      .   S
    C343   O601      0.70639  1_545   S
    C179   O602      0.54499      .   S
    C35    O602      0.54499      .   S
    C178   O603      0.54473      .   S
    C34    O603      0.54473      .   S
    C148   O604      0.54441      .   S
    C14    O604      0.54441      .   S
    C149   O605      0.54439      .   S
    C15    O605      0.54439      .   S
    C136   O606      0.63849      .   S
    C366   O606      0.63849      .   S
    C137   O607      0.63851      .   S
    C367   O607      0.63851      .   S
    C166   O608      0.69452      .   S
    C164   O608      0.69452      .   S
    C166   O609      0.54486      .   S
    C26    O609      0.54486      .   S
    C167   O610      0.69452      .   S
    C165   O610      0.69452      .   S
    C167   O611      0.54480      .   S
    C27    O611      0.54480      .   S
    C165   O612      0.54462      .   S
    C25    O612      0.54462      .   S
    C164   O613      0.54462      .   S
    C24    O613      0.54462      .   S
    C342   O614      0.64091      .   S
    C358   O614      0.64091  1_565   S
    C343   O615      0.64027      .   S
    C359   O615      0.64027  1_565   S
    C382   O616      0.63856      .   S
    C232   O616      0.63856      .   S
    C383   O617      0.63854      .   S
    C233   O617      0.63854      .   S
    C367   O618      1.02533      .   S
    C5     O618      1.02533      .   S
    C366   O619      1.02503      .   S
    C4     O619      1.02503      .   S
    C79    O620      0.54438      .   S
    C245   O620      0.54438      .   S
    C78    O621      0.54361      .   S
    C244   O621      0.54361      .   S
    C91    O622      0.54486      .   S
    C263   O622      0.54486      .   S
    C90    O623      0.54482      .   S
    C262   O623      0.54482      .   S
    C89    O624      0.53920      .   S
    C261   O624      0.53920      .   S
    C88    O625      0.54464      .   S
    C260   O625      0.54464      .   S
    C358   O626      0.70637  1_565   S
    C302   O626      0.70637      .   S
    C359   O627      0.70638  1_565   S
    C303   O627      0.70638      .   S
    C114   O628      0.54310      .   S
    C300   O628      0.54310      .   S
    C115   O629      0.54307      .   S
    C301   O629      0.54307      .   S
    C261   O630      0.69461      .   S
    C263   O630      0.69461      .   S
    C261   O631      0.67887      .   S
    C345   O631      0.67887      .   S
    C260   O632      0.69453      .   S
    C262   O632      0.69453      .   S
    C260   O633      0.67349      .   S
    C344   O633      0.67349      .   S
    C262   O634      0.70203      .   S
    C264   O634      0.70203      .   S
    C263   O635      0.70202      .   S
    C265   O635      0.70202      .   S
    C98    O636      0.54473      .   S
    C274   O636      0.54473      .   S
    C99    O637      0.54470      .   S
    C275   O637      0.54470      .   S
    C233   O638      0.63505      .   S
    C377   O638      0.63505      .   S
    C233   O639      0.75135      .   S
    C235   O639      0.75135      .   S
    C232   O640      0.63503      .   S
    C376   O640      0.63503      .   S
    C232   O641      0.75127      .   S
    C234   O641      0.75127      .   S
    C244   O642      0.70172      .   S
    C234   O642      0.70172      .   S
    C244   O643      0.69594      .   S
    C242   O643      0.69594      .   S
    C245   O644      0.70151      .   S
    C235   O644      0.70151      .   S
    C245   O645      0.69535      .   S
    C243   O645      0.69535      .   S
    C96    O646      0.54414      .   S
    C272   O646      0.54414      .   S
    C97    O647      0.54445      .   S
    C273   O647      0.54445      .   S
    C77    O648      0.54477  1_565   S
    C243   O648      0.54477      .   S
    C76    O649      0.54480  1_565   S
    C242   O649      0.54480      .   S
    C275   O650      0.69356      .   S
    C273   O650      0.69356      .   S
    C275   O651      0.67415      .   S
    C347   O651      0.67415      .   S
    C274   O652      0.69355      .   S
    C272   O652      0.69355      .   S
    C274   O653      0.67418      .   S
    C346   O653      0.67418      .   S
    C303   O654      0.70429      .   S
    C301   O654      0.70429      .   S
    C303   O655      0.70316      .   S
    C305   O655      0.70316      .   S
    C302   O656      0.70429      .   S
    C300   O656      0.70429      .   S
    C302   O657      0.70322      .   S
    C304   O657      0.70322      .   S
    C300   O658      0.69296      .   S
    C298   O658      0.69296      .   S
    C301   O659      0.69339      .   S
    C299   O659      0.69339      .   S
    C272   O660      0.70249      .   S
    C270   O660      0.70249      .   S
    C273   O661      0.70215      .   S
    C271   O661      0.70215      .   S
    C377   O662      1.02600      .   S
    C4     O662      1.02600  1_455   S
    C376   O663      1.02597      .   S
    C5     O663      1.02597      .   S
    C4     O664      1.10167      .   S
    C346   O664      1.10167      .   S
    C4     O665      1.08131  1_455   S
    C345   O665      1.08131      .   S
    C4     O666      1.02765      .   S
    C380   O666      1.02765      .   S
    C5     O667      1.10160      .   S
    C347   O667      1.10160      .   S
    C5     O668      1.08105      .   S
    C344   O668      1.08105      .   S
    C5     O669      1.02749      .   S
    C381   O669      1.02749      .   S
    C347   O670      0.67403      .   S
    C277   O670      0.67403      .   S
    C346   O671      0.67398      .   S
    C276   O671      0.67398      .   S
    C234   O672      0.70412      .   S
    C236   O672      0.70412      .   S
    C235   O673      0.70405      .   S
    C237   O673      0.70405      .   S
    C345   O674      0.67442      .   S
    C269   O674      0.67442      .   S
    C344   O675      0.67386      .   S
    C268   O675      0.67386      .   S
    C243   O676      0.70231      .   S
    C241   O676      0.70231      .   S
    C242   O677      0.70223      .   S
    C240   O677      0.70223      .   S
    C264   O678      0.73968      .   S
    C270   O678      0.73968      .   S
    C264   O679      0.70256      .   S
    C266   O679      0.70256      .   S
    C265   O680      0.73967      .   S
    C271   O680      0.73967      .   S
    C265   O681      0.70250      .   S
    C267   O681      0.70250      .   S
    C271   O682      0.70285      .   S
    C279   O682      0.70285      .   S
    C270   O683      0.70245      .   S
    C278   O683      0.70245      .   S
    C277   O684      0.69620      .   S
    C279   O684      0.69620      .   S
    C277   O685      0.54499      .   S
    C101   O685      0.54499      .   S
    C276   O686      0.69616      .   S
    C278   O686      0.69616      .   S
    C276   O687      0.54492      .   S
    C100   O687      0.54492      .   S
    C278   O688      0.54654      .   S
    C102   O688      0.54654      .   S
    C279   O689      0.54613      .   S
    C103   O689      0.54613      .   S
    C117   O690      0.54512      .   S
    C305   O690      0.54512  1_545   S
    C116   O691      0.54518      .   S
    C304   O691      0.54518  1_545   S
    C304   O692      0.69567      .   S
    C306   O692      0.69567      .   S
    C305   O693      0.69568      .   S
    C307   O693      0.69568      .   S
    C298   O694      0.54435      .   S
    C112   O694      0.54435      .   S
    C298   O695      0.70388      .   S
    C296   O695      0.70388      .   S
    C299   O696      0.54448      .   S
    C113   O696      0.54448      .   S
    C299   O697      0.70319      .   S
    C297   O697      0.70319      .   S
    C268   O698      0.69514      .   S
    C266   O698      0.69514      .   S
    C268   O699      0.54558      .   S
    C94    O699      0.54558      .   S
    C269   O700      0.69509      .   S
    C267   O700      0.69509      .   S
    C269   O701      0.54502      .   S
    C95    O701      0.54502      .   S
    C267   O702      0.54559      .   S
    C93    O702      0.54559      .   S
    C266   O703      0.54556      .   S
    C92    O703      0.54556      .   S
    C237   O704      0.54462      .   S
    C73    O704      0.54462      .   S
    C237   O705      0.69329      .   S
    C239   O705      0.69329      .   S
    C236   O706      0.54453      .   S
    C72    O706      0.54453      .   S
    C236   O707      0.69293      .   S
    C238   O707      0.69293      .   S
    C240   O708      0.70724      .   S
    C348   O708      0.70724  1_565   S
    C240   O709      0.70402      .   S
    C238   O709      0.70402      .   S
    C241   O710      0.70725      .   S
    C349   O710      0.70725  1_565   S
    C241   O711      0.70416      .   S
    C239   O711      0.70416      .   S
    C380   O712      0.64476      .   S
    C246   O712      0.64476      .   S
    C381   O713      0.64497      .   S
    C247   O713      0.64497      .   S
    C307   O714      0.70066      .   S
    C297   O714      0.70066      .   S
    C307   O715      0.54366      .   S
    C119   O715      0.54366      .   S
    C306   O716      0.70064      .   S
    C296   O716      0.70064      .   S
    C306   O717      0.54331      .   S
    C118   O717      0.54331      .   S
    C296   O718      0.75244      .   S
    C294   O718      0.75244      .   S
    C297   O719      0.75253      .   S
    C295   O719      0.75253      .   S
    C349   O720      0.63968      .   S
    C357   O720      0.63968  1_545   S
    C348   O721      0.63968      .   S
    C356   O721      0.63968  1_545   S
    C238   O722      0.54433      .   S
    C74    O722      0.54433      .   S
    C239   O723      0.54380      .   S
    C75    O723      0.54380      .   S
    C107   O724      0.54409      .   S
    C287   O724      0.54409      .   S
    C106   O725      0.54388      .   S
    C286   O725      0.54388      .   S
    C246   O726      0.63049      .   S
    C378   O726      0.63049      .   S
    C246   O727      0.75247      .   S
    C248   O727      0.75247      .   S
    C247   O728      0.63042      .   S
    C379   O728      0.63042      .   S
    C247   O729      0.75235      .   S
    C249   O729      0.75235      .   S
    C386   O730      0.63044      .   S
    C294   O730      0.63044      .   S
    C387   O731      0.63042      .   S
    C295   O731      0.63042      .   S
    C295   O732      0.64498      .   S
    C389   O732      0.64498      .   S
    C294   O733      0.64426      .   S
    C388   O733      0.64426      .   S
    C86    O734      0.54364      .   S
    C258   O734      0.54364      .   S
    C87    O735      0.54365      .   S
    C259   O735      0.54365      .   S
    C287   O736      0.70417      .   S
    C289   O736      0.70417      .   S
    C287   O737      0.69326      .   S
    C285   O737      0.69326      .   S
    C286   O738      0.70414      .   S
    C288   O738      0.70414      .   S
    C286   O739      0.69325      .   S
    C284   O739      0.69325      .   S
    C356   O740      0.70720  1_545   S
    C288   O740      0.70720      .   S
    C357   O741      0.70724  1_545   S
    C289   O741      0.70724      .   S
    C104   O742      0.54463      .   S
    C284   O742      0.54463      .   S
    C105   O743      0.54462      .   S
    C285   O743      0.54462      .   S
    C125   O744      0.54556      .   S
    C315   O744      0.54556      .   S
    C124   O745      0.54556      .   S
    C314   O745      0.54556      .   S
    C248   O746      0.70064      .   S
    C258   O746      0.70064      .   S
    C248   O747      0.70327      .   S
    C250   O747      0.70327      .   S
    C249   O748      0.70064      .   S
    C259   O748      0.70064      .   S
    C249   O749      0.70327      .   S
    C251   O749      0.70327      .   S
    C127   O750      0.54514      .   S
    C317   O750      0.54514      .   S
    C126   O751      0.54503      .   S
    C316   O751      0.54503      .   S
    C259   O752      0.69568      .   S
    C257   O752      0.69568      .   S
    C258   O753      0.69566      .   S
    C256   O753      0.69566      .   S
    C388   O754      1.02844      .   S
    C6     O754      1.02844      .   S
    C389   O755      1.02795      .   S
    C7     O755      1.02795      .   S
    C288   O756      0.70156      .   S
    C290   O756      0.70156      .   S
    C289   O757      0.70225      .   S
    C291   O757      0.70225      .   S
    C285   O758      0.70411      .   S
    C283   O758      0.70411      .   S
    C284   O759      0.70406      .   S
    C282   O759      0.70406      .   S
    C315   O760      0.69509      .   S
    C317   O760      0.69509      .   S
    C315   O761      0.70253      .   S
    C312   O761      0.70253      .   S
    C314   O762      0.69510      .   S
    C316   O762      0.69510      .   S
    C314   O763      0.70257      .   S
    C313   O763      0.70257  1_655   S
    C134   O764      0.54616      .   S
    C326   O764      0.54616      .   S
    C135   O765      0.54611      .   S
    C327   O765      0.54611      .   S
    C317   O766      0.67401      .   S
    C353   O766      0.67401      .   S
    C316   O767      0.67382      .   S
    C352   O767      0.67382      .   S
    C132   O768      0.54503      .   S
    C324   O768      0.54503      .   S
    C133   O769      0.54501      .   S
    C325   O769      0.54501      .   S
    C81    O770      0.54450      .   S
    C251   O770      0.54450      .   S
    C80    O771      0.54451      .   S
    C250   O771      0.54451      .   S
    C250   O772      0.69338      .   S
    C252   O772      0.69338      .   S
    C251   O773      0.69340      .   S
    C253   O773      0.69340      .   S
    C256   O774      0.54518  1_565   S
    C84    O774      0.54518      .   S
    C256   O775      0.70322      .   S
    C254   O775      0.70322      .   S
    C257   O776      0.54520  1_565   S
    C85    O776      0.54520      .   S
    C257   O777      0.70290      .   S
    C255   O777      0.70290      .   S
    C327   O778      0.69622      .   S
    C325   O778      0.69622      .   S
    C327   O779      0.70284      .   S
    C319   O779      0.70284      .   S
    C326   O780      0.69621      .   S
    C324   O780      0.69621      .   S
    C326   O781      0.70282      .   S
    C318   O781      0.70282      .   S
    C324   O782      0.67402      .   S
    C354   O782      0.67402      .   S
    C325   O783      0.67404      .   S
    C355   O783      0.67404      .   S
    C318   O784      0.73967      .   S
    C312   O784      0.73967      .   S
    C318   O785      0.70195      .   S
    C320   O785      0.70195      .   S
    C319   O786      0.73969      .   S
    C313   O786      0.73969      .   S
    C319   O787      0.70216      .   S
    C321   O787      0.70216      .   S
    C313   O788      0.70208      .   S
    C310   O788      0.70208  1_455   S
    C312   O789      0.70202      .   S
    C311   O789      0.70202      .   S
    C290   O790      0.54497      .   S
    C108   O790      0.54497  1_545   S
    C290   O791      0.69585      .   S
    C292   O791      0.69585      .   S
    C291   O792      0.54480      .   S
    C109   O792      0.54480  1_545   S
    C291   O793      0.69532      .   S
    C293   O793      0.69532      .   S
    C353   O794      1.08011      .   S
    C7     O794      1.08011      .   S
    C353   O795      0.67407      .   S
    C309   O795      0.67407      .   S
    C352   O796      1.08014      .   S
    C6     O796      1.08014      .   S
    C352   O797      0.67407      .   S
    C308   O797      0.67407      .   S
    C283   O798      0.70149      .   S
    C293   O798      0.70149      .   S
    C283   O799      0.75122      .   S
    C281   O799      0.75122      .   S
    C282   O800      0.70149      .   S
    C292   O800      0.70149      .   S
    C282   O801      0.75135      .   S
    C280   O801      0.75135      .   S
    C354   O802      1.10239      .   S
    C6     O802      1.10239      .   S
    C354   O803      0.67412      .   S
    C322   O803      0.67412      .   S
    C355   O804      1.10239      .   S
    C7     O804      1.10239      .   S
    C355   O805      0.67414      .   S
    C323   O805      0.67414      .   S
    C6     O806      1.02589      .   S
    C384   O806      1.02589      .   S
    C6     O807      1.02496      .   S
    C374   O807      1.02496      .   S
    C7     O808      1.02587      .   S
    C385   O808      1.02587      .   S
    C7     O809      1.02501      .   S
    C375   O809      1.02501      .   S
    C385   O810      0.63486      .   S
    C281   O810      0.63486      .   S
    C384   O811      0.63493      .   S
    C280   O811      0.63493      .   S
    C320   O812      0.69361      .   S
    C322   O812      0.69361      .   S
    C320   O813      0.54459      .   S
    C128   O813      0.54459      .   S
    C321   O814      0.69360      .   S
    C323   O814      0.69360      .   S
    C321   O815      0.54445      .   S
    C129   O815      0.54445      .   S
    C252   O816      0.70428      .   S
    C254   O816      0.70428      .   S
    C252   O817      0.54309      .   S
    C82    O817      0.54309      .   S
    C253   O818      0.70435      .   S
    C255   O818      0.70435      .   S
    C253   O819      0.54304      .   S
    C83    O819      0.54304      .   S
    C255   O820      0.70654      .   S
    C351   O820      0.70654  1_545   S
    C254   O821      0.70634      .   S
    C350   O821      0.70634  1_545   S
    C322   O822      0.54472      .   S
    C130   O822      0.54472      .   S
    C323   O823      0.54436      .   S
    C131   O823      0.54436      .   S
    C293   O824      0.54447      .   S
    C111   O824      0.54447      .   S
    C292   O825      0.54444      .   S
    C110   O825      0.54444      .   S
    C310   O826      0.69451      .   S
    C308   O826      0.69451      .   S
    C310   O827      0.54487  1_455   S
    C123   O827      0.54487      .   S
    C311   O828      0.69449      .   S
    C309   O828      0.69449      .   S
    C311   O829      0.54488      .   S
    C122   O829      0.54488      .   S
    C309   O830      0.54434      .   S
    C121   O830      0.54434      .   S
    C308   O831      0.54462      .   S
    C120   O831      0.54462      .   S
