# CIF file generated by openbabel 2.4.90, see http://openbabel.sf.net
data_I
_chemical_name_common ''
_cell_length_a 13.968
_cell_length_b 14.562
_cell_length_c 24.165
_cell_angle_alpha 89.979
_cell_angle_beta 90.005
_cell_angle_gamma 116.971
_space_group_name_H-M_alt 'P 1'
_space_group_name_Hall 'P 1'
loop_
    _symmetry_equiv_pos_as_xyz
    x,y,z
loop_
    _atom_site_label
    _atom_site_type_symbol
    _atom_site_fract_x
    _atom_site_fract_y
    _atom_site_fract_z
    _atom_site_occupancy
    Si0     Si   0.71217   0.38570   0.50394   1.000
    Si1     Si   0.28807   0.11396   0.00391   1.000
    Si2     Si   0.28791   0.61432   0.49614   1.000
    Si3     Si   0.71200   0.88599   0.99617   1.000
    H4      H    0.85349   0.41428   0.60400   1.000
    H5      H    0.93381   0.30686   0.64454   1.000
    H6      H    0.81155   0.09652   0.50796   1.000
    H7      H    0.72878   0.20047   0.46820   1.000
    H8      H    0.59396   0.21424   0.58216   1.000
    H9      H    0.40458   0.12133   0.61232   1.000
    H10     H    0.31927   0.30099   0.49940   1.000
    H11     H    0.51065   0.40406   0.47437   1.000
    H12     H    0.88279   0.59099   0.46307   1.000
    H13     H    0.97111   0.76353   0.50510   1.000
    H14     H    0.76637   0.65461   0.64749   1.000
    H15     H    0.67471   0.47913   0.60582   1.000
    H16     H    0.56299   0.32703   0.40313   1.000
    H17     H    0.59735   0.33423   0.30245   1.000
    H18     H    0.93615   0.45394   0.33309   1.000
    H19     H    0.90300   0.44327   0.43406   1.000
    H20     H    0.73304   0.36827   0.17784   1.000
    H21     H    0.14687   0.08545   0.10449   1.000
    H22     H    0.06649   0.19282   0.14440   1.000
    H23     H    0.18831   0.40294   0.00771   1.000
    H24     H    0.27110   0.29904   0.96804   1.000
    H25     H    0.40614   0.28530   0.08216   1.000
    H26     H    0.59547   0.37821   0.11236   1.000
    H27     H    0.68100   0.19884   0.99942   1.000
    H28     H    0.48966   0.09577   0.97437   1.000
    H29     H    0.11713   0.90875   0.96323   1.000
    H30     H    0.02887   0.73620   0.00530   1.000
    H31     H    0.23427   0.84486   0.14743   1.000
    H32     H    0.32585   0.02040   0.10573   1.000
    H33     H    0.43729   0.17264   0.90308   1.000
    H34     H    0.40293   0.16540   0.80241   1.000
    H35     H    0.06412   0.04559   0.83306   1.000
    H36     H    0.09727   0.05631   0.93403   1.000
    H37     H    0.26714   0.13135   0.67779   1.000
    H38     H    0.14660   0.58574   0.39559   1.000
    H39     H    0.06628   0.69315   0.35554   1.000
    H40     H    0.18849   0.90349   0.49211   1.000
    H41     H    0.27126   0.79955   0.53184   1.000
    H42     H    0.40612   0.78578   0.41792   1.000
    H43     H    0.59550   0.87869   0.38770   1.000
    H44     H    0.68079   0.69902   0.50070   1.000
    H45     H    0.48941   0.59595   0.52571   1.000
    H46     H    0.11729   0.40902   0.53702   1.000
    H47     H    0.02896   0.23648   0.49499   1.000
    H48     H    0.23367   0.34541   0.35200   1.000
    H49     H    0.32535   0.52088   0.39426   1.000
    H50     H    0.43709   0.67297   0.59697   1.000
    H51     H    0.40271   0.66574   0.69764   1.000
    H52     H    0.06393   0.54609   0.66699   1.000
    H53     H    0.09709   0.55678   0.56602   1.000
    H54     H    0.26696   0.63167   0.82226   1.000
    H55     H    0.85318   0.91449   0.89559   1.000
    H56     H    0.93357   0.80714   0.85561   1.000
    H57     H    0.81179   0.59702   0.99238   1.000
    H58     H    0.72899   0.70092   0.03205   1.000
    H59     H    0.59391   0.71465   0.91792   1.000
    H60     H    0.40456   0.62175   0.88774   1.000
    H61     H    0.31909   0.80114   0.00000   1.000
    H62     H    0.51044   0.90422   0.02570   1.000
    H63     H    0.88291   0.09120   0.03688   1.000
    H64     H    0.97118   0.26377   0.99482   1.000
    H65     H    0.76585   0.15511   0.85267   1.000
    H66     H    0.67426   0.97957   0.89430   1.000
    H67     H    0.56276   0.82733   0.09701   1.000
    H68     H    0.59714   0.83459   0.19768   1.000
    H69     H    0.93594   0.95433   0.16702   1.000
    H70     H    0.90278   0.94360   0.06605   1.000
    H71     H    0.73299   0.86870   0.32231   1.000
    C72     C    0.78430   0.31495   0.53364   1.000
    C73     C    0.84342   0.34435   0.58320   1.000
    C74     C    0.88892   0.28503   0.60580   1.000
    C75     C    0.87736   0.19541   0.57877   1.000
    C76     C    0.81981   0.16591   0.52896   1.000
    C77     C    0.77364   0.22483   0.50695   1.000
    C78     C    0.92666   0.13222   0.60266   1.000
    C79     C    0.56732   0.31543   0.52531   1.000
    C80     C    0.53490   0.23556   0.56458   1.000
    C81     C    0.42806   0.18245   0.58151   1.000
    C82     C    0.34980   0.20474   0.55744   1.000
    C83     C    0.38052   0.28406   0.51812   1.000
    C84     C    0.48827   0.34036   0.50358   1.000
    C85     C    0.23365   0.14168   0.57114   1.000
    C86     C    0.77285   0.52083   0.53163   1.000
    C87     C    0.85620   0.60294   0.50364   1.000
    C88     C    0.90623   0.70092   0.52692   1.000
    C89     C    0.87445   0.71962   0.57890   1.000
    C90     C    0.79069   0.63899   0.60710   1.000
    C91     C    0.74036   0.54102   0.58356   1.000
    C92     C    0.92944   0.82469   0.60380   1.000
    C93     C    0.73039   0.38736   0.42662   1.000
    O94     O    0.06726   0.43728   0.07185   1.000
    O95     O    0.83442   0.37705   0.03304   1.000
    O96     O    0.79291   0.39170   0.12124   1.000
    O97     O    0.09490   0.65837   0.15226   1.000
    C98     C    0.64537   0.35587   0.38843   1.000
    C99     C    0.66396   0.35940   0.33158   1.000
    C100    C    0.76915   0.39594   0.31154   1.000
    C101    C    0.85491   0.42686   0.34907   1.000
    C102    C    0.83536   0.42145   0.40568   1.000
    C103    C    0.79283   0.40266   0.25151   1.000
    C104    C    0.21585   0.18468   0.03354   1.000
    C105    C    0.15683   0.15532   0.08314   1.000
    C106    C    0.11130   0.21462   0.10574   1.000
    C107    C    0.12272   0.30417   0.07862   1.000
    C108    C    0.18015   0.33361   0.02870   1.000
    C109    C    0.22634   0.27471   0.00670   1.000
    C110    C    0.07346   0.36736   0.10252   1.000
    C111    C    0.43289   0.18425   0.02530   1.000
    C112    C    0.46524   0.26404   0.06459   1.000
    C113    C    0.57205   0.31715   0.08154   1.000
    C114    C    0.65036   0.29495   0.05748   1.000
    C115    C    0.61972   0.21570   0.01814   1.000
    C116    C    0.51198   0.15940   0.00358   1.000
    C117    C    0.76651   0.35803   0.07118   1.000
    C118    C    0.22740   0.97879   0.03165   1.000
    C119    C    0.14388   0.89674   0.00375   1.000
    C120    C    0.09388   0.79875   0.02706   1.000
    C121    C    0.12586   0.77998   0.07901   1.000
    C122    C    0.20980   0.86054   0.10713   1.000
    C123    C    0.26008   0.95853   0.08353   1.000
    C124    C    0.07093   0.67486   0.10390   1.000
    C125    C    0.26989   0.11228   0.92658   1.000
    C126    C    0.35490   0.14376   0.88839   1.000
    C127    C    0.33631   0.14022   0.83150   1.000
    C128    C    0.23112   0.10366   0.81150   1.000
    C129    C    0.14536   0.07271   0.84904   1.000
    C130    C    0.16492   0.07814   0.90565   1.000
    C131    C    0.20741   0.09697   0.75148   1.000
    C132    C    0.21577   0.68507   0.46645   1.000
    C133    C    0.15667   0.65567   0.41688   1.000
    C134    C    0.11116   0.71499   0.39424   1.000
    C135    C    0.12271   0.80460   0.42130   1.000
    C136    C    0.18024   0.83410   0.47111   1.000
    C137    C    0.22641   0.77519   0.49313   1.000
    C138    C    0.07341   0.86778   0.39740   1.000
    C139    C    0.43275   0.68458   0.47477   1.000
    C140    C    0.46518   0.76445   0.43550   1.000
    C141    C    0.57202   0.81756   0.41857   1.000
    C142    C    0.65027   0.79527   0.44265   1.000
    C143    C    0.61955   0.71594   0.48197   1.000
    C144    C    0.51179   0.65965   0.49651   1.000
    C145    C    0.76644   0.85833   0.42896   1.000
    C146    C    0.22722   0.47918   0.46846   1.000
    C147    C    0.14387   0.39707   0.49640   1.000
    C148    C    0.09383   0.29909   0.47316   1.000
    C149    C    0.12560   0.28040   0.42115   1.000
    C150    C    0.20937   0.36103   0.39294   1.000
    C151    C    0.25970   0.45900   0.41652   1.000
    C152    C    0.07062   0.17532   0.39620   1.000
    C153    C    0.26970   0.61267   0.57347   1.000
    C154    C    0.35471   0.64413   0.61166   1.000
    C155    C    0.33611   0.64059   0.66850   1.000
    C156    C    0.23091   0.60406   0.68855   1.000
    C157    C    0.14517   0.57315   0.65101   1.000
    C158    C    0.16473   0.57858   0.59440   1.000
    C159    C    0.20721   0.59731   0.74857   1.000
    C160    C    0.78422   0.81527   0.96655   1.000
    C161    C    0.84323   0.84463   0.91695   1.000
    C162    C    0.88877   0.78534   0.89434   1.000
    C163    C    0.87737   0.69580   0.92147   1.000
    C164    C    0.81993   0.66635   0.97132   1.000
    C165    C    0.77374   0.72524   0.99331   1.000
    C166    C    0.92663   0.63261   0.89755   1.000
    C167    C    0.56719   0.81572   0.97478   1.000
    C168    C    0.53482   0.73592   0.93550   1.000
    C169    C    0.42800   0.68281   0.91856   1.000
    C170    C    0.34970   0.70502   0.94260   1.000
    C171    C    0.38037   0.78428   0.98196   1.000
    C172    C    0.48810   0.84058   0.99651   1.000
    C173    C    0.23355   0.64194   0.92894   1.000
    C174    C    0.77268   0.02116   0.96844   1.000
    C175    C    0.85618   0.10321   0.99635   1.000
    C176    C    0.90619   0.20121   0.97306   1.000
    C177    C    0.87423   0.21999   0.92110   1.000
    C178    C    0.79031   0.13942   0.89290   1.000
    C179    C    0.74003   0.04143   0.91656   1.000
    C180    C    0.92917   0.32511   0.89621   1.000
    C181    C    0.73016   0.88766   0.07350   1.000
    C182    C    0.64515   0.85620   0.11170   1.000
    C183    C    0.66375   0.85975   0.16855   1.000
    C184    C    0.76894   0.89630   0.18858   1.000
    C185    C    0.85469   0.92723   0.15104   1.000
    C186    C    0.83513   0.92178   0.09443   1.000
    C187    C    0.79268   0.90301   0.24860   1.000
    O188    O    0.96114   0.14723   0.65203   1.000
    O189    O    0.93292   0.06243   0.57193   1.000
    O190    O    0.16574   0.12282   0.53301   1.000
    O191    O    0.20723   0.10788   0.62119   1.000
    O192    O    0.90571   0.84102   0.65227   1.000
    O193    O    0.00000   0.89808   0.57473   1.000
    O194    O    0.88723   0.44521   0.23395   1.000
    O195    O    0.70802   0.36102   0.21857   1.000
    O196    O    0.00000   0.35221   0.15190   1.000
    O197    O    0.99802   0.60159   0.07486   1.000
    O198    O    0.11299   0.05452   0.73395   1.000
    O199    O    0.29219   0.13858   0.71851   1.000
    O200    O    0.00000   0.85277   0.34803   1.000
    O201    O    0.06713   0.93758   0.42812   1.000
    O202    O    0.83432   0.87719   0.46710   1.000
    O203    O    0.79287   0.89213   0.37891   1.000
    O204    O    0.09433   0.15901   0.34781   1.000
    O205    O    0.99797   0.10193   0.42536   1.000
    O206    O    0.11279   0.55476   0.76611   1.000
    O207    O    0.29199   0.63891   0.78154   1.000
    O208    O    0.96118   0.64781   0.84819   1.000
    O209    O    0.93279   0.56265   0.92821   1.000
    O210    O    0.16566   0.62294   0.96700   1.000
    O211    O    0.20713   0.60827   0.87888   1.000
    O212    O    0.90523   0.34160   0.84785   1.000
    O213    O    0.00000   0.39838   0.92526   1.000
    O214    O    0.88712   0.94543   0.26611   1.000
    O215    O    0.70792   0.86147   0.28159   1.000
loop_
    _geom_bond_atom_site_label_1
    _geom_bond_atom_site_label_2
    _geom_bond_distance
    _geom_bond_site_symmetry_2
    _ccdc_geom_bond_type
    H61    C171      1.08341  1_554   S
    C116   C115      1.39335      .   S
    C116   C111      1.41068      .   S
    C116   H28       1.09196  1_554   S
    C119   C120      1.39161      .   S
    C119   C118      1.40689      .   S
    C119   H29       1.08995  1_554   S
    Si1    C111      1.87852      .   S
    Si1    C118      1.87828  1_545   S
    Si1    C104      1.87971      .   S
    Si1    C125      1.88449  1_554   S
    H30    C120      1.08667      .   S
    C109   C108      1.39170      .   S
    C109   C104      1.40930      .   S
    C109   H24       1.09001  1_554   S
    H23    C108      1.08859      .   S
    C115   C114      1.40404      .   S
    C115   H27       1.09019  1_554   S
    C111   C112      1.40717      .   S
    H62    C172      1.09170  1_554   S
    C120   C121      1.40024      .   S
    C108   C107      1.40372      .   S
    C118   C123      1.41024      .   S
    H58    C165      1.09162  1_554   S
    O95    C117      1.26006      .   S
    C104   C105      1.40680      .   S
    H63    C175      1.09010  1_554   S
    C114   C117      1.49456      .   S
    C114   C113      1.39994      .   S
    C112   C113      1.39480      .   S
    C112   H25       1.09070      .   S
    H70    C186      1.09163      .   S
    C117   O96       1.29464      .   S
    O94    C110      1.29341      .   S
    C181   C186      1.41132      .   S
    C181   C182      1.40653      .   S
    C181   Si3       1.88447  1_554   S
    O197   C124      1.29724  1_655   S
    C107   C110      1.49281      .   S
    C107   C106      1.40218      .   S
    C121   C124      1.49251      .   S
    C121   C122      1.40198      .   S
    C113   H26       1.09039      .   S
    C105   H21       1.09183      .   S
    C105   C106      1.39525      .   S
    C123   H32       1.09227  1_565   S
    C123   C122      1.39465      .   S
    C186   C185      1.39020      .   S
    H67    C182      1.09011      .   S
    C110   O196      1.52319      .   S
    C124   O97       1.26814      .   S
    C106   H22       1.08854      .   S
    C122   H31       1.08995      .   S
    C182   C183      1.39471      .   S
    C185   H69       1.08924      .   S
    C185   C184      1.40390      .   S
    C183   C184      1.40260      .   S
    C183   H68       1.08909      .   S
    H20    O195      1.03370      .   S
    C184   C187      1.48113      .   S
    O195   C103      1.32408      .   S
    O194   C103      1.24957      .   S
    C187   O214      1.24962      .   S
    C187   O215      1.32411      .   S
    C103   C100      1.48117      .   S
    O215   H71       1.03369      .   S
    H17    C99       1.08916      .   S
    C100   C99       1.40259      .   S
    C100   C101      1.40388      .   S
    C99    C98       1.39472      .   S
    H18    C101      1.08924      .   S
    O204   C152      1.26695      .   S
    O200   C138      1.52289      .   S
    C101   C102      1.39019      .   S
    H48    C150      1.10275      .   S
    H39    C134      1.08995      .   S
    O203   C145      1.29468      .   S
    H43    C141      1.09139      .   S
    C98    H16       1.09013      .   S
    C98    C93       1.40648      .   S
    C150   C151      1.39459      .   S
    C150   C149      1.40208      .   S
    C134   C133      1.39531      .   S
    C134   C135      1.40224      .   S
    H49    C151      1.09201      .   S
    H38    C133      1.09178      .   S
    C152   C149      1.49308      .   S
    C152   O205      1.29782  1_455   S
    C138   C135      1.49278      .   S
    C138   O201      1.29358      .   S
    C102   C93       1.41141      .   S
    C102   H19       1.09165      .   S
    C151   C146      1.41026      .   S
    C133   C132      1.40687      .   S
    H42    C140      1.09069      .   S
    C141   C140      1.39483      .   S
    C141   C142      1.39999      .   S
    C149   C148      1.40013      .   S
    C135   C136      1.40221      .   S
    C93    Si0       1.88438      .   S
    C145   C142      1.49458      .   S
    C145   O202      1.26006      .   S
    C140   C139      1.40707      .   S
    C142   C143      1.40396      .   S
    H12    C87       1.09007      .   S
    C132   C137      1.40836      .   S
    C132   Si2       1.87953      .   S
    H7     C77       1.09263      .   S
    C146   Si2       1.87782      .   S
    C146   C147      1.40636      .   S
    C136   H40       1.08934      .   S
    C136   C137      1.39154      .   S
    C148   H47       1.08674      .   S
    C148   C147      1.39121      .   S
    H11    C84       1.09216      .   S
    C139   Si2       1.87850      .   S
    C139   C144      1.41072      .   S
    C143   C144      1.39337      .   S
    C143   H44       1.09021      .   S
    C137   H41       1.09174      .   S
    Si2    C153      1.88460      .   S
    C147   H46       1.09112      .   S
    C144   H45       1.09202      .   S
    H10    C83       1.09017      .   S
    C84    C83       1.39334      .   S
    C84    C79       1.41068      .   S
    C87    C88       1.39160      .   S
    C87    C86       1.40694      .   S
    Si0    C79       1.87857      .   S
    Si0    C86       1.87784      .   S
    Si0    C72       1.87958      .   S
    H13    C88       1.08665      .   S
    C77    C76       1.39150      .   S
    C77    C72       1.40843      .   S
    H6     C76       1.08933      .   S
    C83    C82       1.40394      .   S
    C79    C80       1.40707      .   S
    C88    C89       1.39960      .   S
    C76    C75       1.40231      .   S
    C86    C91       1.41010      .   S
    O190   C85       1.26008      .   S
    C72    C73       1.40675      .   S
    C82    C85       1.49457      .   S
    C82    C81       1.39994      .   S
    C80    C81       1.39479      .   S
    C80    H8        1.09074      .   S
    H53    C158      1.09162      .   S
    C85    O191      1.29466      .   S
    O189   C78       1.29353      .   S
    C153   C158      1.41133      .   S
    C153   C154      1.40643      .   S
    O193   C92       1.28498  1_455   S
    C75    C78       1.49280      .   S
    C75    C74       1.40186      .   S
    C89    C92       1.49257      .   S
    C89    C90       1.40194      .   S
    C81    H9        1.09040      .   S
    C73    H4        1.08626      .   S
    C73    C74       1.39499      .   S
    C91    H15       1.09202      .   S
    C91    C90       1.39421      .   S
    C158   C157      1.39020      .   S
    H50    C154      1.09007      .   S
    C78    O188      1.26793      .   S
    C92    O192      1.26885      .   S
    C74    H5        1.09085      .   S
    C90    H14       1.09089      .   S
    C154   C155      1.39449      .   S
    C157   H52       1.08926      .   S
    C157   C156      1.40396      .   S
    C155   C156      1.40273      .   S
    C155   H51       1.08928      .   S
    H37    O199      1.03363      .   S
    C156   C159      1.48101      .   S
    O199   C131      1.32410      .   S
    O198   C131      1.24957      .   S
    C159   O206      1.24962      .   S
    C159   O207      1.32424      .   S
    C131   C128      1.48106      .   S
    O207   H54       1.03350      .   S
    H34    C127      1.08849      .   S
    C128   C127      1.40233      .   S
    C128   C129      1.40393      .   S
    C127   C126      1.39566      .   S
    H35    C129      1.08925      .   S
    O212   C180      1.26796      .   S
    O208   C166      1.26793      .   S
    C129   C130      1.39019      .   S
    H65    C178      1.08838      .   S
    H56    C162      1.08996      .   S
    O211   C173      1.29472      .   S
    H60    C169      1.09043      .   S
    C126   H33       1.09010      .   S
    C126   C125      1.40639      .   S
    C178   C179      1.39529      .   S
    C178   C177      1.40278      .   S
    H66    C179      1.09288  1_565   S
    C162   C161      1.39534      .   S
    C162   C163      1.40230      .   S
    H55    C161      1.09192      .   S
    C180   C177      1.49254      .   S
    C180   O213      1.28570  1_655   S
    C166   C163      1.49292      .   S
    C166   O209      1.29355      .   S
    C130   C125      1.41132      .   S
    C130   H36       1.09164      .   S
    C179   C174      1.41018      .   S
    C161   C160      1.40675      .   S
    H59    C168      1.09076      .   S
    C169   C168      1.39480      .   S
    C169   C170      1.39966      .   S
    C177   C176      1.40038      .   S
    C163   C164      1.40224      .   S
    C173   C170      1.49443      .   S
    C173   O210      1.25846      .   S
    C168   C167      1.40705      .   S
    C170   C171      1.40443      .   S
    C160   C165      1.40840      .   S
    C160   Si3       1.87964      .   S
    C174   Si3       1.87826  1_545   S
    C174   C175      1.40686      .   S
    C164   H57       1.08937      .   S
    C164   C165      1.39160      .   S
    C176   H64       1.08658      .   S
    C176   C175      1.39148      .   S
    C167   Si3       1.87845      .   S
    C167   C172      1.41073      .   S
    C171   C172      1.39333      .   S
