# CIF file generated by openbabel 2.4.90, see http://openbabel.sf.net
data_I
_chemical_name_common ''
_cell_length_a 13.968
_cell_length_b 14.562
_cell_length_c 24.165
_cell_angle_alpha 89.979
_cell_angle_beta 90.005
_cell_angle_gamma 116.971
_space_group_name_H-M_alt 'P 1'
_space_group_name_Hall 'P 1'
loop_
    _symmetry_equiv_pos_as_xyz
    x,y,z
loop_
    _atom_site_label
    _atom_site_type_symbol
    _atom_site_fract_x
    _atom_site_fract_y
    _atom_site_fract_z
    _atom_site_occupancy
    Ca0     Ca   0.97638   0.47867   0.14880   1.000
    Ca1     Ca   0.97626   0.97919   0.35127   1.000
    Ca2     Ca   0.02369   0.52129   0.85129   1.000
    Ca3     Ca   0.00003   0.00002   0.50004   1.000
    Ca4     Ca   0.00001   0.49999   0.00000   1.000
    Ca5     Ca   0.02383   0.02082   0.64880   1.000
