# CIF file generated by openbabel 2.4.90, see http://openbabel.sf.net
data_I
_chemical_name_common ''
_cell_length_a 13.968
_cell_length_b 14.562
_cell_length_c 24.165
_cell_angle_alpha 89.979
_cell_angle_beta 90.005
_cell_angle_gamma 116.971
_space_group_name_H-M_alt 'P 1'
_space_group_name_Hall 'P 1'
loop_
    _symmetry_equiv_pos_as_xyz
    x,y,z
loop_
    _atom_site_label
    _atom_site_type_symbol
    _atom_site_fract_x
    _atom_site_fract_y
    _atom_site_fract_z
    _atom_site_occupancy
    Zr0     Zr   0.02383   0.02082   0.64880   1.000
    Zr1     Zr   0.97638   0.47867   0.14880   1.000
    Zr2     Zr   0.97626   0.97919   0.35127   1.000
    Zr3     Zr   0.02369   0.52129   0.85129   1.000
    Zr4     Zr   0.00003   0.00002   0.50004   1.000
    Zr5     Zr   0.00001   0.49999   0.00000   1.000
    N6      N    0.28222   0.62018   0.50027   1.000
    O7      O    0.17523   0.57910   0.65449   1.000
    N8      N    0.71695   0.88017   0.00030   1.000
    O9      O    0.82432   0.92124   0.15450   1.000
    N10     N    0.71708   0.37983   0.49978   1.000
    O11     O    0.82444   0.42088   0.34558   1.000
    N12     N    0.28237   0.11980   0.99977   1.000
    O13     O    0.17539   0.07873   0.84557   1.000
    O14     O    0.87507   0.20280   0.51319   1.000
    O15     O    0.12457   0.29696   0.01318   1.000
    O16     O    0.86043   0.69925   0.98444   1.000
    O17     O    0.12448   0.79721   0.48688   1.000
    O18     O    0.86472   0.18733   0.56198   1.000
    O19     O    0.13349   0.81268   0.43809   1.000
    O20     O    0.14271   0.31757   0.06924   1.000
    O21     O    0.85829   0.70311   0.93838   1.000
loop_
    _geom_bond_atom_site_label_1
    _geom_bond_atom_site_label_2
    _geom_bond_distance
    _geom_bond_site_symmetry_2
    _ccdc_geom_bond_type
    N6     O7        3.95814      .   S
    Zr3    O7        5.11748      .   S
    N8     O9        3.95950      .   S
    Zr2    O9        5.11891      .   S
    N10    O11       3.95953      .   S
    Zr1    O11       5.11882      .   S
    N12    O13       3.95788      .   S
    Zr0    O13       5.11708      .   S
    N10    O14       4.09630      .   S
    Zr4    O14       4.06731  1_455   S
    N12    O15       4.09599  1_556   S
    Zr5    O15       4.06634      .   S
    N8     O16       3.98682  1_554   S
    Zr5    O16       4.18234  1_454   S
    N6     O17       4.09354      .   S
    Zr4    O17       4.06224  1_545   S
    Zr0    O18       4.48375  1_455   S
    N10    O18       4.42810      .   S
    Zr2    O19       4.46440  1_655   S
    N6     O19       4.43956      .   S
    Zr1    O20       4.42104  1_655   S
    N12    O20       4.47418  1_556   S
    Zr3    O21       4.72554  1_455   S
    N8     O21       4.17193  1_554   S
