# CIF file generated by openbabel 2.4.90, see http://openbabel.sf.net
data_I
_chemical_name_common ''
_cell_length_a 15.084
_cell_length_b 12.455
_cell_length_c 25.541
_cell_angle_alpha 70.801
_cell_angle_beta 81.473
_cell_angle_gamma 72.345
_space_group_name_H-M_alt 'P 1'
_space_group_name_Hall 'P 1'
loop_
    _symmetry_equiv_pos_as_xyz
    x,y,z
loop_
    _atom_site_label
    _atom_site_type_symbol
    _atom_site_fract_x
    _atom_site_fract_y
    _atom_site_fract_z
    _atom_site_occupancy
    Zn0     Zn   0.98658   0.89807   0.96433   1.000
    Zn1     Zn   0.41831   0.60344   0.53361   1.000
    Zn2     Zn   0.91833   0.60346   0.53363   1.000
    Zn3     Zn   0.01383   0.10325   0.03351   1.000
    Zn4     Zn   0.51392   0.10316   0.03352   1.000
    Zn5     Zn   0.08202   0.39811   0.46425   1.000
    Zn6     Zn   0.58200   0.39807   0.46420   1.000
    Zn7     Zn   0.48669   0.89797   0.96433   1.000
