# CIF file generated by openbabel 2.4.90, see http://openbabel.sf.net
data_I
_chemical_name_common ''
_cell_length_a 15.084
_cell_length_b 12.455
_cell_length_c 25.541
_cell_angle_alpha 70.801
_cell_angle_beta 81.473
_cell_angle_gamma 72.345
_space_group_name_H-M_alt 'P 1'
_space_group_name_Hall 'P 1'
loop_
    _symmetry_equiv_pos_as_xyz
    x,y,z
loop_
    _atom_site_label
    _atom_site_type_symbol
    _atom_site_fract_x
    _atom_site_fract_y
    _atom_site_fract_z
    _atom_site_occupancy
    N0      N    0.50020   0.00080   0.49903   1.000
    N1      N    0.27660   0.83622   0.30903   1.000
    N2      N    0.77659   0.83621   0.30903   1.000
    N3      N    0.34934   0.66483   0.18881   1.000
    N4      N    0.84937   0.66480   0.18883   1.000
    N5      N    0.00017   0.00072   0.49904   1.000
    N6      N    0.72382   0.16468   0.68887   1.000
    N7      N    0.22379   0.16473   0.68887   1.000
    N8      N    0.15083   0.33644   0.80918   1.000
    N9      N    0.65079   0.33644   0.80915   1.000
    N10     N    0.25032   0.50050   0.99896   1.000
    N11     N    0.75032   0.50051   0.99894   1.000
    Zr12    Zr   0.51392   0.10316   0.03352   1.000
    O13     O    0.61002   0.97714   0.06980   1.000
    O14     O    0.58155   0.21784   0.02413   1.000
    O15     O    0.44497   0.03045   0.11071   1.000
    O16     O    0.41228   0.17332   0.96962   1.000
    Zr17    Zr   0.08202   0.39811   0.46425   1.000
    O18     O    0.98369   0.32788   0.52824   1.000
    O19     O    0.01544   0.47075   0.38708   1.000
    O20     O    0.20244   0.28346   0.47370   1.000
    O21     O    0.13344   0.52407   0.42800   1.000
    Zr22    Zr   0.48669   0.89797   0.96433   1.000
    O23     O    0.55555   0.97077   0.88716   1.000
    O24     O    0.58821   0.82779   0.02828   1.000
    O25     O    0.41908   0.78324   0.97370   1.000
    O26     O    0.39044   0.02399   0.92809   1.000
    Zr27    Zr   0.58200   0.39807   0.46420   1.000
    O28     O    0.70242   0.28341   0.47367   1.000
    O29     O    0.48367   0.32786   0.52819   1.000
    O30     O    0.51542   0.47071   0.38704   1.000
    O31     O    0.63342   0.52404   0.42796   1.000
    Zr32    Zr   0.98658   0.89807   0.96433   1.000
    O33     O    0.05546   0.97088   0.88716   1.000
    O34     O    0.08812   0.82788   0.02827   1.000
    O35     O    0.91900   0.78331   0.97373   1.000
    O36     O    0.89035   0.02407   0.92809   1.000
    Zr37    Zr   0.41831   0.60344   0.53361   1.000
    O38     O    0.36690   0.47734   0.56988   1.000
    O39     O    0.29791   0.71807   0.52424   1.000
    O40     O    0.51668   0.67354   0.46965   1.000
    O41     O    0.48484   0.53068   0.61082   1.000
    Zr42    Zr   0.91833   0.60346   0.53363   1.000
    O43     O    0.86692   0.47735   0.56989   1.000
    O44     O    0.98485   0.53070   0.61084   1.000
    O45     O    0.79792   0.71811   0.52425   1.000
    O46     O    0.01669   0.67356   0.46967   1.000
    Zr47    Zr   0.01383   0.10325   0.03351   1.000
    O48     O    0.08149   0.21791   0.02413   1.000
    O49     O    0.10995   0.97722   0.06979   1.000
    O50     O    0.94492   0.03051   0.11071   1.000
    O51     O    0.91220   0.17340   0.96961   1.000
loop_
    _geom_bond_atom_site_label_1
    _geom_bond_atom_site_label_2
    _geom_bond_distance
    _geom_bond_site_symmetry_2
    _ccdc_geom_bond_type
    Zr12   O13       1.86692  1_545   S
    N4     O13       4.93631      .   S
    Zr12   O14       1.92992      .   S
    N11    O14       4.76963  1_556   S
    Zr12   O15       2.13959      .   S
    N1     O15       5.45999  1_565   S
    Zr12   O16       2.18385  1_554   S
    N8     O16       5.56145      .   S
    Zr17   O18       2.18263  1_455   S
    N6     O18       5.55959      .   S
    Zr17   O19       2.13898      .   S
    N4     O19       5.45859  1_655   S
    Zr17   O20       1.93042      .   S
    N0     O20       4.77059      .   S
    Zr17   O21       1.86806      .   S
    N1     O21       4.93845      .   S
    Zr22   O23       2.13892      .   S
    N6     O23       5.45758  1_545   S
    Zr22   O24       2.18337  1_556   S
    N4     O24       5.56054      .   S
    Zr22   O25       1.93031      .   S
    N10    O25       4.76999      .   S
    Zr22   O26       1.86787  1_565   S
    N8     O26       4.93783      .   S
    Zr27   O28       1.93045      .   S
    N5     O28       4.77067  1_455   S
    Zr27   O29       2.18263      .   S
    N7     O29       5.55991      .   S
    Zr27   O30       2.13868      .   S
    N3     O30       5.45813      .   S
    Zr27   O31       1.86810      .   S
    N2     O31       4.93845      .   S
    Zr32   O33       2.13907  1_655   S
    N7     O33       5.45790  1_545   S
    Zr32   O34       2.18356  1_656   S
    N3     O34       5.56093      .   S
    Zr32   O35       1.93007      .   S
    N11    O35       4.77010      .   S
    Zr32   O36       1.86757  1_565   S
    N9     O36       4.93732      .   S
    Zr37   O38       1.86943      .   S
    N7     O38       4.94235      .   S
    Zr37   O39       1.93022      .   S
    N5     O39       4.77012  1_545   S
    Zr37   O40       2.18196      .   S
    N2     O40       5.55762      .   S
    Zr37   O41       2.13937      .   S
    N9     O41       5.45943      .   S
    Zr42   O43       1.86956      .   S
    N6     O43       4.94263      .   S
    Zr42   O44       2.13947      .   S
    N8     O44       5.45968  1_455   S
    Zr42   O45       1.93024      .   S
    N0     O45       4.77016  1_545   S
    Zr42   O46       2.18202  1_655   S
    N1     O46       5.55777      .   S
    Zr47   O48       1.92994      .   S
    N10    O48       4.76970  1_556   S
    Zr47   O49       1.86717  1_545   S
    N3     O49       4.93681      .   S
    Zr47   O50       2.13962  1_455   S
    N2     O50       5.46003  1_565   S
    Zr47   O51       2.18385  1_454   S
    N9     O51       5.56139      .   S
