# CIF file generated by openbabel 2.4.90, see http://openbabel.sf.net
data_I
_chemical_name_common ''
_cell_length_a 8.8355
_cell_length_b 8.8355
_cell_length_c 13.703
_cell_angle_alpha 95.653
_cell_angle_beta 95.661
_cell_angle_gamma 92.63
_space_group_name_H-M_alt 'P 1'
_space_group_name_Hall 'P 1'
loop_
    _symmetry_equiv_pos_as_xyz
    x,y,z
loop_
    _atom_site_label
    _atom_site_type_symbol
    _atom_site_fract_x
    _atom_site_fract_y
    _atom_site_fract_z
    _atom_site_occupancy
    H0      H    0.31567   0.10423   0.55807   1.000
    H1      H    0.47319   0.18362   0.61407   1.000
    H2      H    0.89579   0.68429   0.94188   1.000
    H3      H    0.81632   0.52675   0.88596   1.000
    H4      H    0.68427   0.89575   0.44194   1.000
    H5      H    0.52675   0.81636   0.38594   1.000
    H6      H    0.10415   0.31569   0.05813   1.000
    H7      H    0.18362   0.47323   0.11405   1.000
    C8      C    0.83306   0.35387   0.47746   1.000
    C9      C    0.64608   0.16688   0.02257   1.000
    C10     C    0.16685   0.64608   0.52255   1.000
    C11     C    0.35383   0.83307   0.97745   1.000
    N12     N    0.72202   0.27086   0.46266   1.000
    N13     N    0.72914   0.27790   0.03739   1.000
    N14     N    0.27789   0.72909   0.53735   1.000
    N15     N    0.27077   0.72205   0.96262   1.000
    O16     O    0.42503   0.08810   0.56639   1.000
    O17     O    0.91188   0.57492   0.93361   1.000
    O18     O    0.57491   0.91188   0.43363   1.000
    O19     O    0.08806   0.42506   0.06640   1.000
loop_
    _geom_bond_atom_site_label_1
    _geom_bond_atom_site_label_2
    _geom_bond_distance
    _geom_bond_site_symmetry_2
    _ccdc_geom_bond_type
    C9     N13       1.18623      .   S
    H6     O19       0.98033      .   S
    O19    H7        1.06012      .   S
    H5     O18       1.06012      .   S
    O18    H4        0.98035      .   S
    N12    C8        1.18622      .   S
    C10    N14       1.18621      .   S
    H0     O16       0.98036      .   S
    O16    H1        1.06014      .   S
    H3     O17       1.06010      .   S
    O17    H2        0.98033      .   S
    N15    C11       1.18623      .   S
