# CIF file generated by openbabel 2.4.90, see http://openbabel.sf.net
data_I
_chemical_name_common ''
_cell_length_a 8.8355
_cell_length_b 8.8355
_cell_length_c 13.703
_cell_angle_alpha 95.653
_cell_angle_beta 95.661
_cell_angle_gamma 92.63
_space_group_name_H-M_alt 'P 1'
_space_group_name_Hall 'P 1'
loop_
    _symmetry_equiv_pos_as_xyz
    x,y,z
loop_
    _atom_site_label
    _atom_site_type_symbol
    _atom_site_fract_x
    _atom_site_fract_y
    _atom_site_fract_z
    _atom_site_occupancy
    Ca0     Ca   0.84849   0.52437   0.10364   1.000
    Ca1     Ca   0.52433   0.84846   0.60363   1.000
    Ca2     Ca   0.15144   0.47558   0.89637   1.000
    Fe3     Fe   0.99997   0.49998   0.50001   1.000
    Fe4     Fe   0.49995   0.99996   0.00000   1.000
    Ca5     Ca   0.47559   0.15150   0.39638   1.000
