# CIF file generated by openbabel 2.4.90, see http://openbabel.sf.net
data_I
_chemical_name_common ''
_cell_length_a 8.8355
_cell_length_b 8.8355
_cell_length_c 13.703
_cell_angle_alpha 95.653
_cell_angle_beta 95.661
_cell_angle_gamma 92.63
_space_group_name_H-M_alt 'P 1'
_space_group_name_Hall 'P 1'
loop_
    _symmetry_equiv_pos_as_xyz
    x,y,z
loop_
    _atom_site_label
    _atom_site_type_symbol
    _atom_site_fract_x
    _atom_site_fract_y
    _atom_site_fract_z
    _atom_site_occupancy
    C0      C    0.47559   0.15150   0.39638   1.000
    C1      C    0.84849   0.52437   0.10364   1.000
    C2      C    0.52433   0.84846   0.60363   1.000
    C3      C    0.15144   0.47558   0.89637   1.000
    C4      C    0.99997   0.49998   0.50001   1.000
    C5      C    0.49995   0.99996   0.00000   1.000
    C6      C    0.58820   0.54486   0.42385   1.000
    C7      C    0.38376   0.53955   0.41775   1.000
    C8      C    0.23337   0.38945   0.28478   1.000
    C9      C    0.32550   0.28254   0.19168   1.000
    C10     C    0.33742   0.76065   0.20678   1.000
    C11     C    0.59882   0.28990   0.19995   1.000
    C12     C    0.31567   0.10423   0.55807   1.000
    C13     C    0.47319   0.18362   0.61407   1.000
    C14     C    0.45515   0.41179   0.07614   1.000
    C15     C    0.46047   0.61623   0.08223   1.000
    C16     C    0.61055   0.76662   0.21518   1.000
    C17     C    0.71748   0.67451   0.30831   1.000
    C18     C    0.23934   0.66259   0.29315   1.000
    C19     C    0.71011   0.40119   0.30007   1.000
    C20     C    0.89579   0.68429   0.94188   1.000
    C21     C    0.81632   0.52675   0.88596   1.000
    C22     C    0.41172   0.45510   0.57616   1.000
    C23     C    0.61616   0.46042   0.58227   1.000
    C24     C    0.76654   0.61052   0.71523   1.000
    C25     C    0.67442   0.71743   0.80833   1.000
    C26     C    0.66251   0.23932   0.79323   1.000
    C27     C    0.40109   0.71006   0.80006   1.000
    C28     C    0.68427   0.89575   0.44194   1.000
    C29     C    0.52675   0.81636   0.38594   1.000
    C30     C    0.54477   0.58817   0.92387   1.000
    C31     C    0.53947   0.38373   0.91778   1.000
    C32     C    0.38938   0.23334   0.78483   1.000
    C33     C    0.28246   0.32544   0.69170   1.000
    C34     C    0.76059   0.33738   0.70686   1.000
    C35     C    0.28982   0.59877   0.69994   1.000
    C36     C    0.10415   0.31569   0.05813   1.000
    C37     C    0.18362   0.47323   0.11405   1.000
    C38     C    0.83306   0.35387   0.47746   1.000
    C39     C    0.97499   0.53089   0.36414   1.000
    C40     C    0.14122   0.35158   0.46909   1.000
    C41     C    0.48180   0.53726   0.37469   1.000
    C42     C    0.33168   0.38794   0.24179   1.000
    C43     C    0.64608   0.16688   0.02257   1.000
    C44     C    0.46907   0.02497   0.13587   1.000
    C45     C    0.64838   0.85871   0.03091   1.000
    C46     C    0.46275   0.51819   0.12529   1.000
    C47     C    0.61207   0.66833   0.25819   1.000
    C48     C    0.16685   0.64608   0.52255   1.000
    C49     C    0.02492   0.46905   0.63587   1.000
    C50     C    0.85869   0.64837   0.53092   1.000
    C51     C    0.51812   0.46271   0.62532   1.000
    C52     C    0.66823   0.61203   0.75822   1.000
    C53     C    0.35383   0.83307   0.97745   1.000
    C54     C    0.53083   0.97498   0.86414   1.000
    C55     C    0.35153   0.14124   0.96911   1.000
    C56     C    0.53717   0.48177   0.87472   1.000
    C57     C    0.38786   0.33164   0.74183   1.000
    C58     C    0.33752   0.66248   0.24997   1.000
    C59     C    0.60514   0.39487   0.25001   1.000
    C60     C    0.66241   0.33749   0.75004   1.000
    C61     C    0.39479   0.60509   0.75001   1.000
    C62     C    0.72202   0.27086   0.46266   1.000
    C63     C    0.95745   0.54600   0.27870   1.000
    C64     C    0.23597   0.26697   0.44740   1.000
    C65     C    0.47339   0.39357   0.30905   1.000
    C66     C    0.48024   0.67127   0.31731   1.000
    C67     C    0.72914   0.27790   0.03739   1.000
    C68     C    0.45399   0.04255   0.22132   1.000
    C69     C    0.73297   0.76392   0.05259   1.000
    C70     C    0.60643   0.52661   0.19096   1.000
    C71     C    0.32874   0.51976   0.18265   1.000
    C72     C    0.27789   0.72909   0.53735   1.000
    C73     C    0.04247   0.45394   0.72131   1.000
    C74     C    0.76394   0.73298   0.55261   1.000
    C75     C    0.52653   0.60640   0.69096   1.000
    C76     C    0.51969   0.32869   0.68270   1.000
    C77     C    0.27077   0.72205   0.96262   1.000
    C78     C    0.54591   0.95740   0.77869   1.000
    C79     C    0.26694   0.23603   0.94742   1.000
    C80     C    0.39349   0.47335   0.80906   1.000
    C81     C    0.67119   0.48021   0.81736   1.000
    C82     C    0.42503   0.08810   0.56639   1.000
    C83     C    0.91188   0.57492   0.93361   1.000
    C84     C    0.57491   0.91188   0.43363   1.000
    C85     C    0.08806   0.42506   0.06640   1.000
    O86     O    0.57302   0.08342   0.01128   1.000
    O87     O    0.57417   0.92934   0.01545   1.000
    O88     O    0.48451   0.01247   0.06794   1.000
    O89     O    0.51539   0.98747   0.93207   1.000
    O90     O    0.42574   0.07060   0.98455   1.000
    O91     O    0.42689   0.91651   0.98872   1.000
    O92     O    0.68761   0.22239   0.02998   1.000
    O93     O    0.69067   0.81132   0.04175   1.000
    O94     O    0.78881   0.40113   0.07051   1.000
    O95     O    0.09611   0.37037   0.06227   1.000
    O96     O    0.13584   0.44915   0.09023   1.000
    O97     O    0.45895   0.46499   0.10071   1.000
    O98     O    0.46161   0.56721   0.10376   1.000
    O99     O    0.39574   0.51898   0.15397   1.000
    O100    O    0.53459   0.52240   0.15812   1.000
    O101    O    0.46153   0.03376   0.17860   1.000
    O102    O    0.33021   0.45385   0.21222   1.000
    O103    O    0.33313   0.59112   0.21631   1.000
    O104    O    0.60578   0.46074   0.22048   1.000
    O105    O    0.60925   0.59747   0.22457   1.000
    O106    O    0.32859   0.33524   0.21674   1.000
    O107    O    0.60198   0.34238   0.22498   1.000
    O108    O    0.33747   0.71157   0.22838   1.000
    O109    O    0.61131   0.71747   0.23669   1.000
    O110    O    0.28253   0.38869   0.26329   1.000
    O111    O    0.40254   0.39076   0.27542   1.000
    O112    O    0.28843   0.66254   0.27156   1.000
    O113    O    0.40888   0.66688   0.28364   1.000
    O114    O    0.65762   0.39803   0.27504   1.000
    O115    O    0.53927   0.39422   0.27953   1.000
    O116    O    0.66477   0.67142   0.28325   1.000
    O117    O    0.54615   0.66980   0.28775   1.000
    O118    O    0.96622   0.53845   0.32142   1.000
    O119    O    0.47760   0.46542   0.34187   1.000
    O120    O    0.48102   0.60427   0.34600   1.000
    O121    O    0.98748   0.51543   0.43207   1.000
    O122    O    0.43278   0.53840   0.39622   1.000
    O123    O    0.53500   0.54106   0.39927   1.000
    O124    O    0.55083   0.86412   0.40978   1.000
    O125    O    0.59880   0.21118   0.42952   1.000
    O126    O    0.62959   0.90382   0.43778   1.000
    O127    O    0.18860   0.30927   0.45825   1.000
    O128    O    0.77754   0.31236   0.47006   1.000
    O129    O    0.07060   0.42578   0.48455   1.000
    O130    O    0.91652   0.42692   0.48873   1.000
    O131    O    0.08341   0.57303   0.51128   1.000
    O132    O    0.92933   0.57417   0.51546   1.000
    O133    O    0.01245   0.48452   0.56794   1.000
    O134    O    0.22237   0.68759   0.52995   1.000
    O135    O    0.81131   0.69068   0.54176   1.000
    O136    O    0.40111   0.78878   0.57049   1.000
    O137    O    0.37035   0.09616   0.56223   1.000
    O138    O    0.44911   0.13586   0.59023   1.000
    O139    O    0.46492   0.45890   0.60074   1.000
    O140    O    0.56714   0.46156   0.60379   1.000
    O141    O    0.51891   0.39570   0.65401   1.000
    O142    O    0.52233   0.53455   0.65814   1.000
    O143    O    0.03370   0.46150   0.67859   1.000
    O144    O    0.45378   0.33017   0.71226   1.000
    O145    O    0.59105   0.33309   0.71637   1.000
    O146    O    0.46066   0.60574   0.72048   1.000
    O147    O    0.59738   0.60921   0.72459   1.000
    O148    O    0.33516   0.32854   0.71676   1.000
    O149    O    0.34230   0.60193   0.72497   1.000
    O150    O    0.71150   0.33744   0.72845   1.000
    O151    O    0.71739   0.61128   0.73672   1.000
    O152    O    0.38862   0.28249   0.76333   1.000
    O153    O    0.39068   0.40249   0.77544   1.000
    O154    O    0.39794   0.65757   0.77503   1.000
    O155    O    0.39414   0.53922   0.77953   1.000
    O156    O    0.66246   0.28841   0.77163   1.000
    O157    O    0.66680   0.40885   0.78370   1.000
    O158    O    0.67133   0.66473   0.78327   1.000
    O159    O    0.66971   0.54612   0.78779   1.000
    O160    O    0.53837   0.96619   0.82142   1.000
    O161    O    0.46533   0.47756   0.84189   1.000
    O162    O    0.60418   0.48099   0.84604   1.000
    O163    O    0.53832   0.43275   0.89625   1.000
    O164    O    0.54097   0.53497   0.89930   1.000
    O165    O    0.86410   0.55084   0.90979   1.000
    O166    O    0.21111   0.59882   0.92949   1.000
    O167    O    0.90384   0.62961   0.93774   1.000
    O168    O    0.30924   0.18863   0.95826   1.000
    O169    O    0.31230   0.77756   0.97003   1.000
    O170    O    0.45031   0.11980   0.48138   1.000
    O171    O    0.47468   0.96828   0.58501   1.000
    O172    O    0.88018   0.54965   0.01862   1.000
    O173    O    0.03166   0.52525   0.91499   1.000
    O174    O    0.52525   0.03169   0.41500   1.000
    O175    O    0.54962   0.88017   0.51863   1.000
    O176    O    0.96827   0.47471   0.08502   1.000
    O177    O    0.11975   0.45032   0.98139   1.000
loop_
    _geom_bond_atom_site_label_1
    _geom_bond_atom_site_label_2
    _geom_bond_distance
    _geom_bond_site_symmetry_2
    _ccdc_geom_bond_type
    C5     O86       0.94795  1_565   S
    C43    O86       0.94795      .   S
    C5     O87       0.94891      .   S
    C45    O87       0.94891      .   S
    C5     O88       0.95060  1_565   S
    C44    O88       0.95060      .   S
    C5     O89       0.95052  1_554   S
    C54    O89       0.95052      .   S
    C5     O90       0.94892  1_564   S
    C55    O90       0.94892      .   S
    C5     O91       0.94785  1_554   S
    C53    O91       0.94785      .   S
    C43    O92       0.59311      .   S
    C67    O92       0.59311      .   S
    C45    O93       0.59389      .   S
    C69    O93       0.59389      .   S
    C67    O94       1.21340      .   S
    C1     O94       1.21340      .   S
    C36    O95       0.49017      .   S
    C85    O95       0.49017      .   S
    C85    O96       0.53006      .   S
    C37    O96       0.53006      .   S
    C14    O97       0.54828      .   S
    C46    O97       0.54828      .   S
    C15    O98       0.54748      .   S
    C46    O98       0.54748      .   S
    C46    O99       0.74214      .   S
    C71    O99       0.74214      .   S
    C46    O100      0.73817      .   S
    C70    O100      0.73817      .   S
    C44    O101      0.59363      .   S
    C68    O101      0.59363      .   S
    C71    O102      0.74140      .   S
    C42    O102      0.74140      .   S
    C71    O103      0.74075      .   S
    C58    O103      0.74075      .   S
    C70    O104      0.74093      .   S
    C59    O104      0.74093      .   S
    C70    O105      0.73774      .   S
    C47    O105      0.73774      .   S
    C9     O106      0.54860      .   S
    C42    O106      0.54860      .   S
    C11    O107      0.54684      .   S
    C59    O107      0.54684      .   S
    C10    O108      0.54858      .   S
    C58    O108      0.54858      .   S
    C16    O109      0.54818      .   S
    C47    O109      0.54818      .   S
    C42    O110      0.54820      .   S
    C8     O110      0.54820      .   S
    C42    O111      0.73775      .   S
    C65    O111      0.73775      .   S
    C58    O112      0.54859      .   S
    C18    O112      0.54859      .   S
    C58    O113      0.74075      .   S
    C66    O113      0.74075      .   S
    C59    O114      0.54684      .   S
    C19    O114      0.54684      .   S
    C59    O115      0.74095      .   S
    C65    O115      0.74095      .   S
    C47    O116      0.54861      .   S
    C17    O116      0.54861      .   S
    C47    O117      0.74139      .   S
    C66    O117      0.74139      .   S
    C63    O118      0.59363      .   S
    C39    O118      0.59363      .   S
    C65    O119      0.73817      .   S
    C41    O119      0.73817      .   S
    C66    O120      0.74216      .   S
    C41    O120      0.74216      .   S
    C39    O121      0.95052      .   S
    C4     O121      0.95052      .   S
    C41    O122      0.54747      .   S
    C7     O122      0.54747      .   S
    C41    O123      0.54829      .   S
    C6     O123      0.54829      .   S
    C29    O124      0.53006      .   S
    C84    O124      0.53006      .   S
    C0     O125      1.21328      .   S
    C62    O125      1.21328      .   S
    C84    O126      0.49017      .   S
    C28    O126      0.49017      .   S
    C64    O127      0.59389      .   S
    C40    O127      0.59389      .   S
    C62    O128      0.59311      .   S
    C38    O128      0.59311      .   S
    C40    O129      0.94886      .   S
    C4     O129      0.94886  1_655   S
    C38    O130      0.94783      .   S
    C4     O130      0.94783      .   S
    C4     O131      0.94775  1_655   S
    C48    O131      0.94775      .   S
    C4     O132      0.94893      .   S
    C50    O132      0.94893      .   S
    C4     O133      0.95052  1_655   S
    C49    O133      0.95052      .   S
    C48    O134      0.59311      .   S
    C72    O134      0.59311      .   S
    C50    O135      0.59389      .   S
    C74    O135      0.59389      .   S
    C72    O136      1.21331      .   S
    C2     O136      1.21331      .   S
    C12    O137      0.49018      .   S
    C82    O137      0.49018      .   S
    C82    O138      0.53007      .   S
    C13    O138      0.53007      .   S
    C22    O139      0.54829      .   S
    C51    O139      0.54829      .   S
    C23    O140      0.54747      .   S
    C51    O140      0.54747      .   S
    C51    O141      0.74215      .   S
    C76    O141      0.74215      .   S
    C51    O142      0.73817      .   S
    C75    O142      0.73817      .   S
    C49    O143      0.59363      .   S
    C73    O143      0.59363      .   S
    C76    O144      0.74140      .   S
    C57    O144      0.74140      .   S
    C76    O145      0.74076      .   S
    C60    O145      0.74076      .   S
    C75    O146      0.74094      .   S
    C61    O146      0.74094      .   S
    C75    O147      0.73774      .   S
    C52    O147      0.73774      .   S
    C33    O148      0.54860      .   S
    C57    O148      0.54860      .   S
    C35    O149      0.54684      .   S
    C61    O149      0.54684      .   S
    C34    O150      0.54858      .   S
    C60    O150      0.54858      .   S
    C24    O151      0.54819      .   S
    C52    O151      0.54819      .   S
    C57    O152      0.54820      .   S
    C32    O152      0.54820      .   S
    C57    O153      0.73773      .   S
    C80    O153      0.73773      .   S
    C61    O154      0.54684      .   S
    C27    O154      0.54684      .   S
    C61    O155      0.74093      .   S
    C80    O155      0.74093      .   S
    C60    O156      0.54858      .   S
    C26    O156      0.54858      .   S
    C60    O157      0.74075      .   S
    C81    O157      0.74075      .   S
    C52    O158      0.54861      .   S
    C25    O158      0.54861      .   S
    C52    O159      0.74140      .   S
    C81    O159      0.74140      .   S
    C78    O160      0.59363      .   S
    C54    O160      0.59363      .   S
    C80    O161      0.73816      .   S
    C56    O161      0.73816      .   S
    C81    O162      0.74215      .   S
    C56    O162      0.74215      .   S
    C56    O163      0.54748      .   S
    C31    O163      0.54748      .   S
    C56    O164      0.54828      .   S
    C30    O164      0.54828      .   S
    C21    O165      0.53005      .   S
    C83    O165      0.53005      .   S
    C3     O166      1.21338      .   S
    C77    O166      1.21338      .   S
    C83    O167      0.49016      .   S
    C20    O167      0.49016      .   S
    C79    O168      0.59390      .   S
    C55    O168      0.59390      .   S
    C77    O169      0.59312      .   S
    C53    O169      0.59312      .   S
    C82    O170      1.26292      .   S
    C0     O170      1.26292      .   S
    C82    O171      1.20500  1_545   S
    C2     O171      1.20500      .   S
    C83    O172      1.26305  1_556   S
    C1     O172      1.26305      .   S
    C83    O173      1.20480  1_655   S
    C3     O173      1.20480      .   S
    C84    O174      1.20499  1_565   S
    C0     O174      1.20499      .   S
    C84    O175      1.26296      .   S
    C2     O175      1.26296      .   S
    C85    O176      1.20481  1_455   S
    C1     O176      1.20481      .   S
    C85    O177      1.26301  1_554   S
    C3     O177      1.26301      .   S
