# CIF file generated by openbabel 2.4.90, see http://openbabel.sf.net
data_I
_chemical_name_common ''
_cell_length_a 8.8355
_cell_length_b 8.8355
_cell_length_c 13.703
_cell_angle_alpha 95.653
_cell_angle_beta 95.661
_cell_angle_gamma 92.63
_space_group_name_H-M_alt 'P 1'
_space_group_name_Hall 'P 1'
loop_
    _symmetry_equiv_pos_as_xyz
    x,y,z
loop_
    _atom_site_label
    _atom_site_type_symbol
    _atom_site_fract_x
    _atom_site_fract_y
    _atom_site_fract_z
    _atom_site_occupancy
    Zr0     Zr   0.47559   0.15150   0.39638   1.000
    Zr1     Zr   0.84849   0.52437   0.10364   1.000
    Zr2     Zr   0.52433   0.84846   0.60363   1.000
    Zr3     Zr   0.15144   0.47558   0.89637   1.000
    Zr4     Zr   0.99997   0.49998   0.50001   1.000
    Zr5     Zr   0.49995   0.99996   0.00000   1.000
    N6      N    0.47182   0.52819   0.24999   1.000
    N7      N    0.77754   0.31236   0.47006   1.000
    O8      O    0.68817   0.26177   0.44979   1.000
    O9      O    0.84703   0.36964   0.47940   1.000
    N10     N    0.69067   0.81132   0.04175   1.000
    O11     O    0.63242   0.87033   0.02860   1.000
    N12     N    0.40463   0.12531   0.57951   1.000
    O13     O    0.42747   0.12256   0.53045   1.000
    O14     O    0.43966   0.04680   0.58226   1.000
    N15     N    0.59531   0.87466   0.42050   1.000
    O16     O    0.56028   0.95318   0.41775   1.000
    O17     O    0.57247   0.87742   0.46957   1.000
    N18     N    0.52811   0.47177   0.75002   1.000
    N19     N    0.53837   0.96619   0.82142   1.000
    O20     O    0.52688   0.97683   0.87674   1.000
    N21     N    0.22237   0.68759   0.52995   1.000
    O22     O    0.15289   0.63031   0.52061   1.000
    O23     O    0.31174   0.73818   0.55022   1.000
    N24     N    0.81131   0.69068   0.54176   1.000
    O25     O    0.87032   0.63243   0.52861   1.000
    N26     N    0.46153   0.03376   0.17860   1.000
    O27     O    0.47302   0.02311   0.12327   1.000
    N28     N    0.03370   0.46150   0.67859   1.000
    O29     O    0.02307   0.47301   0.62326   1.000
    N30     N    0.96622   0.53845   0.32142   1.000
    O31     O    0.97685   0.52694   0.37675   1.000
    N32     N    0.18860   0.30927   0.45825   1.000
    O33     O    0.12960   0.36752   0.47140   1.000
    N34     N    0.12528   0.40466   0.07953   1.000
    O35     O    0.04678   0.43969   0.08227   1.000
    O36     O    0.12251   0.42749   0.03046   1.000
    N37     N    0.68761   0.22239   0.02998   1.000
    O38     O    0.63031   0.15291   0.02063   1.000
    O39     O    0.73821   0.31176   0.05025   1.000
    N40     N    0.87466   0.59532   0.92048   1.000
    O41     O    0.87742   0.57249   0.96955   1.000
    O42     O    0.95316   0.56029   0.91774   1.000
    N43     N    0.30924   0.18863   0.95826   1.000
    O44     O    0.36749   0.12962   0.97141   1.000
    N45     N    0.31230   0.77756   0.97003   1.000
    O46     O    0.26170   0.68819   0.94976   1.000
    O47     O    0.36960   0.84704   0.97938   1.000
loop_
    _geom_bond_atom_site_label_1
    _geom_bond_atom_site_label_2
    _geom_bond_distance
    _geom_bond_site_symmetry_2
    _ccdc_geom_bond_type
    N7     O8        0.89462      .   S
    Zr0    O8        2.10552      .   S
    N7     O9        0.76986      .   S
    Zr4    O9        1.71748      .   S
    N10    O11       0.77075      .   S
    Zr5    O11       1.71944      .   S
    N12    O13       0.71925      .   S
    Zr0    O13       1.96414      .   S
    N12    O14       0.77525      .   S
    Zr2    O14       1.97344  1_565   S
    N15    O16       0.77524      .   S
    Zr0    O16       1.97343  1_545   S
    N15    O17       0.71926      .   S
    Zr2    O17       1.96419      .   S
    N19    O20       0.77197      .   S
    Zr5    O20       1.72245  1_554   S
    N21    O22       0.76981      .   S
    Zr4    O22       1.71735  1_655   S
    N21    O23       0.89463      .   S
    Zr2    O23       2.10556      .   S
    N24    O25       0.77077      .   S
    Zr4    O25       1.71947      .   S
    N26    O27       0.77201      .   S
    Zr5    O27       1.72257  1_565   S
    N28    O29       0.77197      .   S
    Zr4    O29       1.72245  1_655   S
    N30    O31       0.77197      .   S
    Zr4    O31       1.72246      .   S
    N32    O33       0.77073      .   S
    Zr4    O33       1.71936  1_655   S
    N34    O35       0.77514      .   S
    Zr1    O35       1.97315  1_655   S
    N34    O36       0.71928      .   S
    Zr3    O36       1.96427  1_556   S
    N37    O38       0.76993      .   S
    Zr5    O38       1.71767  1_565   S
    N37    O39       0.89468      .   S
    Zr1    O39       2.10570      .   S
    N40    O41       0.71929      .   S
    Zr1    O41       1.96431  1_554   S
    N40    O42       0.77514      .   S
    Zr3    O42       1.97314  1_455   S
    N43    O44       0.77076      .   S
    Zr5    O44       1.71946  1_564   S
    N45    O46       0.89467      .   S
    Zr3    O46       2.10567      .   S
    N45    O47       0.76987      .   S
    Zr5    O47       1.71751  1_554   S
