# CIF file generated by openbabel 2.4.90, see http://openbabel.sf.net
data_I
_chemical_name_common ''
_cell_length_a 13.841
_cell_length_b 13.841
_cell_length_c 13.841
_cell_angle_alpha 108.007
_cell_angle_beta 108.003
_cell_angle_gamma 108.002
_space_group_name_H-M_alt 'P 1'
_space_group_name_Hall 'P 1'
loop_
    _symmetry_equiv_pos_as_xyz
    x,y,z
loop_
    _atom_site_label
    _atom_site_type_symbol
    _atom_site_fract_x
    _atom_site_fract_y
    _atom_site_fract_z
    _atom_site_occupancy
    H0      H    0.71260   0.48531   0.41362   1.000
    H1      H    0.55012   0.12894   0.24281   1.000
    H2      H    0.70111   0.09045   0.36055   1.000
    H3      H    0.83670   0.19565   0.39750   1.000
    H4      H    0.41360   0.71264   0.48531   1.000
    H5      H    0.24281   0.55013   0.12894   1.000
    H6      H    0.36053   0.70113   0.09045   1.000
    H7      H    0.39746   0.83673   0.19565   1.000
    H8      H    0.48530   0.41363   0.71260   1.000
    H9      H    0.12894   0.24282   0.55015   1.000
    H10     H    0.09045   0.36055   0.70115   1.000
    H11     H    0.19564   0.39749   0.83675   1.000
    H12     H    0.28737   0.51471   0.58641   1.000
    H13     H    0.44985   0.87108   0.75721   1.000
    H14     H    0.29886   0.90956   0.63947   1.000
    H15     H    0.16327   0.80436   0.60250   1.000
    H16     H    0.58637   0.28738   0.51471   1.000
    H17     H    0.75716   0.44988   0.87109   1.000
    H18     H    0.63944   0.29888   0.90957   1.000
    H19     H    0.60251   0.16328   0.80437   1.000
    H20     H    0.51467   0.58639   0.28737   1.000
    H21     H    0.87103   0.75719   0.44987   1.000
    H22     H    0.90952   0.63946   0.29887   1.000
    H23     H    0.80433   0.60252   0.16327   1.000
    C24     C    0.69294   0.39650   0.38769   1.000
    C25     C    0.60948   0.21713   0.30019   1.000
    C26     C    0.76344   0.17921   0.41672   1.000
    C27     C    0.38767   0.69297   0.39650   1.000
    C28     C    0.30018   0.60950   0.21713   1.000
    C29     C    0.41669   0.76347   0.17921   1.000
    C30     C    0.39650   0.38770   0.69299   1.000
    C31     C    0.21713   0.30020   0.60952   1.000
    C32     C    0.17920   0.41672   0.76349   1.000
    C33     C    0.30703   0.60351   0.61233   1.000
    C34     C    0.39049   0.78288   0.69983   1.000
    C35     C    0.23653   0.82080   0.58330   1.000
    C36     C    0.61230   0.30704   0.60352   1.000
    C37     C    0.69979   0.39051   0.78289   1.000
    C38     C    0.58328   0.23654   0.82081   1.000
    C39     C    0.60347   0.61232   0.30703   1.000
    C40     C    0.78284   0.69982   0.39050   1.000
    C41     C    0.82077   0.58330   0.23653   1.000
    N42     N    0.59561   0.30809   0.29905   1.000
    N43     N    0.76557   0.36502   0.44291   1.000
    N44     N    0.71037   0.24902   0.38629   1.000
    N45     N    0.29904   0.59564   0.30809   1.000
    N46     N    0.44288   0.76561   0.36502   1.000
    N47     N    0.38626   0.71040   0.24902   1.000
    N48     N    0.30809   0.29906   0.59565   1.000
    N49     N    0.36501   0.44291   0.76563   1.000
    N50     N    0.24901   0.38628   0.71042   1.000
    N51     N    0.40436   0.69192   0.70090   1.000
    N52     N    0.23440   0.63500   0.55711   1.000
    N53     N    0.28960   0.75100   0.61374   1.000
    N54     N    0.70093   0.40438   0.69193   1.000
    N55     N    0.55709   0.23441   0.63500   1.000
    N56     N    0.61371   0.28962   0.75101   1.000
    N57     N    0.69188   0.70095   0.40437   1.000
    N58     N    0.63496   0.55710   0.23440   1.000
    N59     N    0.75096   0.61373   0.28960   1.000
loop_
    _geom_bond_atom_site_label_1
    _geom_bond_atom_site_label_2
    _geom_bond_distance
    _geom_bond_site_symmetry_2
    _ccdc_geom_bond_type
    H6     C29       1.09443      .   S
    H5     C28       1.08311      .   S
    H23    C41       1.10107      .   S
    C29    H7        1.10104      .   S
    C29    N47       1.46623      .   S
    C28    N47       1.35278      .   S
    C28    N45       1.33487      .   S
    N58    N59       1.36728      .   S
    N58    C39       1.33652      .   S
    C41    N59       1.46612      .   S
    C41    H22       1.09442      .   S
    H1     C25       1.08315      .   S
    N47    N46       1.36728      .   S
    H20    C39       1.08346      .   S
    N59    C40       1.35281      .   S
    N42    C25       1.33486      .   S
    N42    C24       1.35963      .   S
    C25    N44       1.35282      .   S
    C39    N57       1.35967      .   S
    N45    C27       1.35965      .   S
    H2     C26       1.09443      .   S
    N46    C27       1.33652      .   S
    N44    C26       1.46611      .   S
    N44    N43       1.36729      .   S
    C24    H0        1.08345      .   S
    C24    N43       1.33655      .   S
    C40    N57       1.33489      .   S
    C40    H21       1.08314      .   S
    C27    H4        1.08350      .   S
    H3     C26       1.10105      .   S
    H16    C36       1.08350      .   S
    H9     C31       1.08314      .   S
    N52    C33       1.33656      .   S
    N52    N53       1.36728      .   S
    C35    H15       1.10088      .   S
    C35    N53       1.46617      .   S
    C35    H14       1.09442      .   S
    H12    C33       1.08346      .   S
    N48    C31       1.33488      .   S
    N48    C30       1.35967      .   S
    C36    N55       1.33651      .   S
    C36    N54       1.35965      .   S
    C31    N50       1.35282      .   S
    C33    N51       1.35933      .   S
    N53    C34       1.35276      .   S
    N55    N56       1.36739      .   S
    N54    C37       1.33487      .   S
    C30    H8        1.08360      .   S
    C30    N49       1.33662      .   S
    C34    N51       1.33461      .   S
    C34    H13       1.08315      .   S
    H10    C32       1.09442      .   S
    N50    C32       1.46612      .   S
    N50    N49       1.36728      .   S
    N56    C37       1.35281      .   S
    N56    C38       1.46611      .   S
    C32    H11       1.10106      .   S
    C37    H17       1.08320      .   S
    H19    C38       1.10105      .   S
    C38    H18       1.09443      .   S
