# CIF file generated by openbabel 2.4.90, see http://openbabel.sf.net
data_I
_chemical_name_common ''
_cell_length_a 13.841
_cell_length_b 13.841
_cell_length_c 13.841
_cell_angle_alpha 108.007
_cell_angle_beta 108.003
_cell_angle_gamma 108.002
_space_group_name_H-M_alt 'P 1'
_space_group_name_Hall 'P 1'
loop_
    _symmetry_equiv_pos_as_xyz
    x,y,z
loop_
    _atom_site_label
    _atom_site_type_symbol
    _atom_site_fract_x
    _atom_site_fract_y
    _atom_site_fract_z
    _atom_site_occupancy
    H0      H    0.01676   0.45996   0.86223   1.000
    H1      H    0.00880   0.39325   0.00936   1.000
    H2      H    0.88394   0.19374   0.95408   1.000
    H3      H    0.76262   0.05394   0.75078   1.000
    H4      H    0.86217   0.01678   0.45997   1.000
    H5      H    0.00938   0.00882   0.39326   1.000
    H6      H    0.95405   0.88399   0.19375   1.000
    H7      H    0.75076   0.76265   0.05395   1.000
    H8      H    0.45994   0.86221   0.01677   1.000
    H9      H    0.39323   0.00937   0.00880   1.000
    H10     H    0.19373   0.95408   0.88399   1.000
    H11     H    0.05394   0.75079   0.76265   1.000
    H12     H    0.98320   0.54006   0.13700   1.000
    H13     H    0.99117   0.60677   0.99066   1.000
    H14     H    0.11603   0.80627   0.04594   1.000
    H15     H    0.23736   0.94608   0.24924   1.000
    H16     H    0.13780   0.98324   0.54000   1.000
    H17     H    0.99059   0.99120   0.60676   1.000
    H18     H    0.04592   0.11602   0.80620   1.000
    H19     H    0.24921   0.23736   0.94608   1.000
    H20     H    0.54003   0.13781   0.98320   1.000
    H21     H    0.60674   0.99064   0.99122   1.000
    H22     H    0.80624   0.04593   0.11603   1.000
    H23     H    0.94603   0.24923   0.23737   1.000
    C24     C    0.80093   0.20225   0.53889   1.000
    C25     C    0.89360   0.29317   0.72367   1.000
    C26     C    0.96207   0.37209   0.83800   1.000
    C27     C    0.95693   0.33410   0.91948   1.000
    C28     C    0.88604   0.22020   0.88796   1.000
    C29     C    0.81786   0.14126   0.77431   1.000
    C30     C    0.82083   0.17883   0.69158   1.000
    C31     C    0.53885   0.80097   0.20226   1.000
    C32     C    0.72363   0.89366   0.29317   1.000
    C33     C    0.83815   0.96212   0.37210   1.000
    C34     C    0.91944   0.95699   0.33411   1.000
    C35     C    0.88793   0.88609   0.22021   1.000
    C36     C    0.77428   0.81790   0.14127   1.000
    C37     C    0.69155   0.82086   0.17884   1.000
    C38     C    0.20224   0.53888   0.80090   1.000
    C39     C    0.29315   0.72366   0.89366   1.000
    C40     C    0.37207   0.83819   0.96213   1.000
    C41     C    0.33409   0.91948   0.95699   1.000
    C42     C    0.22019   0.88796   0.88609   1.000
    C43     C    0.14125   0.77431   0.81790   1.000
    C44     C    0.17883   0.69158   0.82087   1.000
    C45     C    0.19904   0.79776   0.46114   1.000
    C46     C    0.10636   0.70685   0.27635   1.000
    C47     C    0.03790   0.62792   0.16183   1.000
    C48     C    0.04304   0.66591   0.08054   1.000
    C49     C    0.11393   0.77981   0.11206   1.000
    C50     C    0.18211   0.85875   0.22572   1.000
    C51     C    0.17915   0.82118   0.30844   1.000
    C52     C    0.46112   0.19905   0.79777   1.000
    C53     C    0.27634   0.10637   0.70685   1.000
    C54     C    0.16182   0.03789   0.62790   1.000
    C55     C    0.08053   0.04303   0.66591   1.000
    C56     C    0.11204   0.11392   0.77982   1.000
    C57     C    0.22569   0.18212   0.85875   1.000
    C58     C    0.30842   0.17915   0.82110   1.000
    C59     C    0.79773   0.46113   0.19904   1.000
    C60     C    0.70682   0.27635   0.10636   1.000
    C61     C    0.62790   0.16183   0.03789   1.000
    C62     C    0.66588   0.08054   0.04303   1.000
    C63     C    0.77978   0.11205   0.11393   1.000
    C64     C    0.85872   0.22571   0.18212   1.000
    C65     C    0.82115   0.30843   0.17915   1.000
    N66     N    0.88082   0.30510   0.62514   1.000
    N67     N    0.76205   0.12274   0.57325   1.000
    N68     N    0.62510   0.88086   0.30510   1.000
    N69     N    0.57322   0.76210   0.12274   1.000
    N70     N    0.30508   0.62513   0.88080   1.000
    N71     N    0.12272   0.57325   0.76211   1.000
    N72     N    0.11915   0.69492   0.37489   1.000
    N73     N    0.23791   0.87728   0.42670   1.000
    N74     N    0.37487   0.11915   0.69492   1.000
    N75     N    0.42675   0.23792   0.87728   1.000
    N76     N    0.69489   0.37489   0.11915   1.000
    N77     N    0.87725   0.42677   0.23790   1.000
loop_
    _geom_bond_atom_site_label_1
    _geom_bond_atom_site_label_2
    _geom_bond_distance
    _geom_bond_site_symmetry_2
    _ccdc_geom_bond_type
    H9     C41       1.09018  1_544   S
    H1     C27       1.09004  1_454   S
    H8     C40       1.08975  1_554   S
    C61    C62       1.39261      .   S
    C61    C60       1.40180      .   S
    C61    H20       1.08993  1_554   S
    C62    C63       1.41159      .   S
    C62    H21       1.09017  1_544   S
    H14    C49       1.09069      .   S
    H7     C36       1.08766      .   S
    C48    C49       1.41157      .   S
    C48    C47       1.39267      .   S
    C48    H13       1.09004  1_454   S
    C60    N76       1.38804      .   S
    C60    C65       1.42116      .   S
    C49    C50       1.39338      .   S
    C63    H22       1.09065      .   S
    C63    C64       1.39334      .   S
    N76    C59       1.35446      .   S
    N69    C37       1.39530      .   S
    N69    C31       1.35753      .   S
    H12    C47       1.08721  1_655   S
    C36    C37       1.40250      .   S
    C36    C35       1.39334      .   S
    C47    C46       1.40176      .   S
    C37    C32       1.42122      .   S
    C65    C64       1.40254      .   S
    C65    N77       1.39531      .   S
    C64    H23       1.08767      .   S
    H6     C35       1.09065      .   S
    C59    N77       1.35744      .   S
    C31    N68       1.35442      .   S
    C35    C34       1.41157      .   S
    C50    H15       1.08770      .   S
    C50    C51       1.40249      .   S
    C46    C51       1.42116      .   S
    C46    N72       1.38814      .   S
    C32    N68       1.38802      .   S
    C32    C33       1.40179      .   S
    C51    N73       1.39449      .   S
    C34    C33       1.39264      .   S
    C34    H5        1.09065  1_665   S
    C33    H4        1.08983  1_565   S
    N72    C45       1.35447      .   S
    N73    C45       1.35826      .   S
    C24    N67       1.35747      .   S
    C24    N66       1.35447      .   S
    H16    C54       1.09015  1_565   S
    N67    C30       1.39529      .   S
    H17    C55       1.09065  1_665   S
    N66    C25       1.38800      .   S
    C54    C55       1.39282      .   S
    C54    C53       1.40187      .   S
    C55    C56       1.41164      .   S
    C30    C25       1.42116      .   S
    C30    C29       1.40262      .   S
    N74    C53       1.38804      .   S
    N74    C52       1.35451      .   S
    C53    C58       1.42026      .   S
    C25    C26       1.39997      .   S
    H3     C29       1.08766      .   S
    N71    C38       1.35719      .   S
    N71    C44       1.39532      .   S
    H11    C43       1.08766      .   S
    C29    C28       1.39328      .   S
    C56    H18       1.09000      .   S
    C56    C57       1.39332      .   S
    C52    N75       1.35743      .   S
    C38    N70       1.35450      .   S
    C43    C44       1.40255      .   S
    C43    C42       1.39335      .   S
    C44    C39       1.42115      .   S
    C58    C57       1.40321      .   S
    C58    N75       1.39533      .   S
    C26    H0        1.08926  1_655   S
    C26    C27       1.39515      .   S
    C57    H19       1.08775      .   S
    N70    C39       1.38791      .   S
    H10    C42       1.09064      .   S
    C42    C41       1.41159      .   S
    C28    C27       1.41158      .   S
    C28    H2        1.09068      .   S
    C39    C40       1.40180      .   S
    C41    C40       1.39262      .   S
