# CIF file generated by openbabel 2.4.90, see http://openbabel.sf.net
data_I
_chemical_name_common ''
_cell_length_a 13.841
_cell_length_b 13.841
_cell_length_c 13.841
_cell_angle_alpha 108.007
_cell_angle_beta 108.003
_cell_angle_gamma 108.002
_space_group_name_H-M_alt 'P 1'
_space_group_name_Hall 'P 1'
loop_
    _symmetry_equiv_pos_as_xyz
    x,y,z
loop_
    _atom_site_label
    _atom_site_type_symbol
    _atom_site_fract_x
    _atom_site_fract_y
    _atom_site_fract_z
    _atom_site_occupancy
    Mc0     Mc   0.36471   0.69382   0.26153   1.000
    Mc1     Mc   0.69379   0.26153   0.36473   1.000
    Mc2     Mc   0.63526   0.30619   0.73849   1.000
    Mc3     Mc   0.73844   0.63528   0.30618   1.000
    Mc4     Mc   0.30618   0.73848   0.63528   1.000
    Mc5     Mc   0.26153   0.36474   0.69383   1.000
