# CIF file generated by openbabel 2.4.90, see http://openbabel.sf.net
data_I
_chemical_name_common ''
_cell_length_a 13.841
_cell_length_b 13.841
_cell_length_c 13.841
_cell_angle_alpha 108.007
_cell_angle_beta 108.003
_cell_angle_gamma 108.002
_space_group_name_H-M_alt 'P 1'
_space_group_name_Hall 'P 1'
loop_
    _symmetry_equiv_pos_as_xyz
    x,y,z
loop_
    _atom_site_label
    _atom_site_type_symbol
    _atom_site_fract_x
    _atom_site_fract_y
    _atom_site_fract_z
    _atom_site_occupancy
    Lv0     Lv   0.78065   0.88106   0.25159   1.000
    Lv1     Lv   0.88102   0.25159   0.78067   1.000
    Lv2     Lv   0.21932   0.11896   0.74841   1.000
    Lv3     Lv   0.74840   0.21933   0.11895   1.000
    Lv4     Lv   0.11895   0.74843   0.21927   1.000
    Lv5     Lv   0.25157   0.78068   0.88105   1.000
