# CIF file generated by openbabel 2.4.90, see http://openbabel.sf.net
data_I
_chemical_name_common ''
_cell_length_a 13.841
_cell_length_b 13.841
_cell_length_c 13.841
_cell_angle_alpha 108.007
_cell_angle_beta 108.003
_cell_angle_gamma 108.002
_space_group_name_H-M_alt 'P 1'
_space_group_name_Hall 'P 1'
loop_
    _symmetry_equiv_pos_as_xyz
    x,y,z
loop_
    _atom_site_label
    _atom_site_type_symbol
    _atom_site_fract_x
    _atom_site_fract_y
    _atom_site_fract_z
    _atom_site_occupancy
    Cd0     Cd   0.59881   0.95510   0.46151   1.000
    Cd1     Cd   0.46148   0.59884   0.95512   1.000
    Cd2     Cd   0.04492   0.53851   0.40118   1.000
    Cd3     Cd   0.40116   0.04492   0.53851   1.000
    Cd4     Cd   0.53848   0.40117   0.04490   1.000
    Cd5     Cd   0.95505   0.46150   0.59885   1.000
    Cl6     Cl   0.96304   0.62428   0.53694   1.000
    Cl7     Cl   0.53691   0.96308   0.62429   1.000
    Cl8     Cl   0.62426   0.53694   0.96311   1.000
    Cl9     Cl   0.03693   0.37573   0.46300   1.000
    Cl10    Cl   0.46306   0.03693   0.37573   1.000
    Cl11    Cl   0.37570   0.46307   0.03692   1.000
    Ts12    Ts   0.65323   0.01098   0.49876   1.000
    Ts13    Ts   0.54684   0.89194   0.42935   1.000
    Ts14    Ts   0.60757   0.93035   0.40937   1.000
    Ts15    Ts   0.49873   0.65326   0.01099   1.000
    Ts16    Ts   0.42932   0.54687   0.89196   1.000
    Ts17    Ts   0.40935   0.60761   0.93035   1.000
    Ts18    Ts   0.10808   0.57067   0.45316   1.000
    Ts19    Ts   0.06966   0.59065   0.39242   1.000
    Ts20    Ts   0.98903   0.50126   0.34675   1.000
    Ts21    Ts   0.34674   0.98904   0.50124   1.000
    Ts22    Ts   0.45313   0.10808   0.57067   1.000
    Ts23    Ts   0.39240   0.06966   0.59065   1.000
    Ts24    Ts   0.50124   0.34675   0.98903   1.000
    Ts25    Ts   0.57064   0.45315   0.10807   1.000
    Ts26    Ts   0.59062   0.39241   0.06965   1.000
    Ts27    Ts   0.89189   0.42934   0.54687   1.000
    Ts28    Ts   0.93031   0.40937   0.60761   1.000
    Ts29    Ts   0.01094   0.49875   0.65327   1.000
loop_
    _geom_bond_atom_site_label_1
    _geom_bond_atom_site_label_2
    _geom_bond_distance
    _geom_bond_site_symmetry_2
    _ccdc_geom_bond_type
    Cl11   Cd4       2.63067      .   S
    Cl10   Cd3       2.63065      .   S
    Cd2    Cl9       2.63001      .   S
    Cd0    Cl7       2.63063      .   S
    Cl6    Cd5       2.63075      .   S
    Cd1    Cl8       2.63066      .   S
    Cd0    Ts12      0.76460  1_565   S
    Cd0    Ts13      0.80790      .   S
    Cd0    Ts14      0.76139      .   S
    Cd1    Ts15      0.76456  1_556   S
    Cd1    Ts16      0.80787      .   S
    Cd1    Ts17      0.76147      .   S
    Cd2    Ts18      0.80788      .   S
    Cd2    Ts19      0.76142      .   S
    Cd2    Ts20      0.76476  1_455   S
    Cd3    Ts21      0.76463  1_545   S
    Cd3    Ts22      0.80790      .   S
    Cd3    Ts23      0.76138      .   S
    Cd4    Ts24      0.76455  1_554   S
    Cd4    Ts25      0.80791      .   S
    Cd4    Ts26      0.76140      .   S
    Cd5    Ts27      0.80790      .   S
    Cd5    Ts28      0.76143      .   S
    Cd5    Ts29      0.76472  1_655   S
