# CIF file generated by openbabel 2.4.90, see http://openbabel.sf.net
data_I
_chemical_name_common ''
_cell_length_a 13.841
_cell_length_b 13.841
_cell_length_c 13.841
_cell_angle_alpha 108.007
_cell_angle_beta 108.003
_cell_angle_gamma 108.002
_space_group_name_H-M_alt 'P 1'
_space_group_name_Hall 'P 1'
loop_
    _symmetry_equiv_pos_as_xyz
    x,y,z
loop_
    _atom_site_label
    _atom_site_type_symbol
    _atom_site_fract_x
    _atom_site_fract_y
    _atom_site_fract_z
    _atom_site_occupancy
    N0      N    0.78065   0.88106   0.25159   1.000
    N1      N    0.88102   0.25159   0.78067   1.000
    N2      N    0.21932   0.11896   0.74841   1.000
    N3      N    0.74840   0.21933   0.11895   1.000
    N4      N    0.11895   0.74843   0.21927   1.000
    N5      N    0.25157   0.78068   0.88105   1.000
    Zr6     Zr   0.45709   0.43212   0.04091   1.000
    O7      O    0.40403   0.32569   0.94783   1.000
    Zr8     Zr   0.56786   0.95909   0.54290   1.000
    O9      O    0.67429   0.05217   0.59596   1.000
    Zr10    Zr   0.43211   0.04093   0.45712   1.000
    O11     O    0.32568   0.94784   0.40403   1.000
    Zr12    Zr   0.04092   0.45712   0.43209   1.000
    O13     O    0.94783   0.40405   0.32567   1.000
    Zr14    Zr   0.95905   0.54289   0.56789   1.000
    O15     O    0.05214   0.59596   0.67433   1.000
    Zr16    Zr   0.54287   0.56789   0.95911   1.000
    O17     O    0.59594   0.67433   0.05219   1.000
    O18     O    0.89866   0.43516   0.56873   1.000
    O19     O    0.43514   0.56873   0.89871   1.000
    O20     O    0.10131   0.56486   0.43126   1.000
    O21     O    0.43127   0.10132   0.56486   1.000
    O22     O    0.56483   0.43128   0.10131   1.000
    O23     O    0.56870   0.89870   0.43516   1.000
loop_
    _geom_bond_atom_site_label_1
    _geom_bond_atom_site_label_2
    _geom_bond_distance
    _geom_bond_site_symmetry_2
    _ccdc_geom_bond_type
    Zr6    O7        1.39368  1_554   S
    N2     O7        2.92842      .   S
    Zr8    O9        1.39371  1_565   S
    N1     O9        2.92836      .   S
    Zr10   O11       1.39370  1_545   S
    N4     O11       2.92856      .   S
    Zr12   O13       1.39367  1_455   S
    N3     O13       2.92844      .   S
    Zr14   O15       1.39379  1_655   S
    N5     O15       2.92848      .   S
    Zr16   O17       1.39366  1_556   S
    N0     O17       2.92835      .   S
    Zr14   O18       1.47265      .   S
    N1     O18       4.44834      .   S
    Zr16   O19       1.47267      .   S
    N5     O19       4.44836      .   S
    Zr12   O20       1.47259      .   S
    N4     O20       4.44896      .   S
    Zr10   O21       1.47260      .   S
    N2     O21       4.44821      .   S
    Zr6    O22       1.47264      .   S
    N3     O22       4.44833      .   S
    N0     O23       4.44834      .   S
    Zr8    O23       1.47262      .   S
