# CIF file generated by openbabel 2.4.90, see http://openbabel.sf.net
data_I
_chemical_name_common ''
_cell_length_a 13.841
_cell_length_b 13.841
_cell_length_c 13.841
_cell_angle_alpha 108.007
_cell_angle_beta 108.003
_cell_angle_gamma 108.002
_space_group_name_H-M_alt 'P 1'
_space_group_name_Hall 'P 1'
loop_
    _symmetry_equiv_pos_as_xyz
    x,y,z
loop_
    _atom_site_label
    _atom_site_type_symbol
    _atom_site_fract_x
    _atom_site_fract_y
    _atom_site_fract_z
    _atom_site_occupancy
    N0      N    0.78065   0.88106   0.25159   1.000
    N1      N    0.88102   0.25159   0.78067   1.000
    N2      N    0.21932   0.11896   0.74841   1.000
    N3      N    0.74840   0.21933   0.11895   1.000
    N4      N    0.11895   0.74843   0.21927   1.000
    N5      N    0.25157   0.78068   0.88105   1.000
    Zr6     Zr   0.45709   0.43212   0.04091   1.000
    O7      O    0.56982   0.36790   0.07070   1.000
    O8      O    0.40403   0.32569   0.94783   1.000
    O9      O    0.55984   0.49467   0.13191   1.000
    Zr10    Zr   0.56786   0.95909   0.54290   1.000
    O11     O    0.67429   0.05217   0.59596   1.000
    O12     O    0.63208   0.92931   0.43017   1.000
    O13     O    0.50532   0.86809   0.44015   1.000
    Zr14    Zr   0.43211   0.04093   0.45712   1.000
    O15     O    0.32568   0.94784   0.40403   1.000
    O16     O    0.49465   0.13193   0.55987   1.000
    O17     O    0.36789   0.07071   0.56984   1.000
    Zr18    Zr   0.04092   0.45712   0.43209   1.000
    O19     O    0.94783   0.40405   0.32567   1.000
    O20     O    0.07071   0.56985   0.36787   1.000
    O21     O    0.13192   0.55987   0.49465   1.000
    Zr22    Zr   0.95905   0.54289   0.56789   1.000
    O23     O    0.92926   0.43017   0.63211   1.000
    O24     O    0.05214   0.59596   0.67433   1.000
    O25     O    0.86805   0.44015   0.50535   1.000
    Zr26    Zr   0.54287   0.56789   0.95911   1.000
    O27     O    0.44013   0.50535   0.86811   1.000
    O28     O    0.59594   0.67433   0.05219   1.000
    O29     O    0.43015   0.63211   0.92931   1.000
loop_
    _geom_bond_atom_site_label_1
    _geom_bond_atom_site_label_2
    _geom_bond_distance
    _geom_bond_site_symmetry_2
    _ccdc_geom_bond_type
    Zr6    O7        2.02003      .   S
    N3     O7        3.70867      .   S
    Zr6    O8        1.39368  1_554   S
    N2     O8        2.92842      .   S
    Zr6    O9        1.34758      .   S
    N3     O9        5.23262      .   S
    Zr10   O11       1.39371  1_565   S
    N1     O11       2.92836      .   S
    Zr10   O12       2.02002      .   S
    N0     O12       3.70866      .   S
    Zr10   O13       1.34758      .   S
    N0     O13       5.23264      .   S
    Zr14   O15       1.39370  1_545   S
    N4     O15       2.92856      .   S
    Zr14   O16       1.34758      .   S
    N2     O16       5.23249      .   S
    Zr14   O17       2.01998      .   S
    N2     O17       3.70855      .   S
    Zr18   O19       1.39367  1_455   S
    N3     O19       2.92844      .   S
    Zr18   O20       2.02007      .   S
    N4     O20       3.70915      .   S
    Zr18   O21       1.34759      .   S
    N4     O21       5.23338      .   S
    Zr22   O23       2.02007      .   S
    N1     O23       3.70865      .   S
    Zr22   O24       1.39379  1_655   S
    N5     O24       2.92848      .   S
    Zr22   O25       1.34758      .   S
    N1     O25       5.23265      .   S
    Zr26   O27       1.34759      .   S
    N5     O27       5.23264      .   S
    Zr26   O28       1.39366  1_556   S
    N0     O28       2.92835      .   S
    Zr26   O29       2.02006      .   S
    N5     O29       3.70869      .   S
