# CIF file generated by openbabel 2.4.90, see http://openbabel.sf.net
data_I
_chemical_name_common ''
_cell_length_a 13.841
_cell_length_b 13.841
_cell_length_c 13.841
_cell_angle_alpha 108.007
_cell_angle_beta 108.003
_cell_angle_gamma 108.002
_space_group_name_H-M_alt 'P 1'
_space_group_name_Hall 'P 1'
loop_
    _symmetry_equiv_pos_as_xyz
    x,y,z
loop_
    _atom_site_label
    _atom_site_type_symbol
    _atom_site_fract_x
    _atom_site_fract_y
    _atom_site_fract_z
    _atom_site_occupancy
    Zr0     Zr   0.95505   0.46150   0.59885   1.000
    Zr1     Zr   0.59881   0.95510   0.46151   1.000
    Zr2     Zr   0.46148   0.59884   0.95512   1.000
    Zr3     Zr   0.04492   0.53851   0.40118   1.000
    Zr4     Zr   0.40116   0.04492   0.53851   1.000
    Zr5     Zr   0.53848   0.40117   0.04490   1.000
    Zr6     Zr   0.96304   0.62428   0.53694   1.000
    Zr7     Zr   0.53691   0.96308   0.62429   1.000
    Zr8     Zr   0.62426   0.53694   0.96311   1.000
    Zr9     Zr   0.03693   0.37573   0.46300   1.000
    Zr10    Zr   0.46306   0.03693   0.37573   1.000
    Zr11    Zr   0.37570   0.46307   0.03692   1.000
    O12     O    0.45709   0.43212   0.04091   1.000
    O13     O    0.43211   0.04093   0.45712   1.000
    O14     O    0.04092   0.45712   0.43209   1.000
    O15     O    0.56786   0.95909   0.54290   1.000
    O16     O    0.95905   0.54289   0.56789   1.000
    O17     O    0.54287   0.56789   0.95911   1.000
    N18     N    0.78065   0.88106   0.25159   1.000
    O19     O    0.64900   0.78076   0.14526   1.000
    O20     O    0.69630   0.89952   0.31745   1.000
    O21     O    0.44278   0.77709   0.33740   1.000
    N22     N    0.88102   0.25159   0.78067   1.000
    O23     O    0.78073   0.14525   0.64903   1.000
    O24     O    0.89948   0.31744   0.69633   1.000
    O25     O    0.77705   0.33740   0.44281   1.000
    N26     N    0.21932   0.11896   0.74841   1.000
    O27     O    0.35097   0.21925   0.85475   1.000
    O28     O    0.30367   0.10050   0.68256   1.000
    O29     O    0.55719   0.22293   0.66262   1.000
    N30     N    0.74840   0.21933   0.11895   1.000
    O31     O    0.85474   0.35099   0.21925   1.000
    O32     O    0.68254   0.30368   0.10049   1.000
    O33     O    0.66258   0.55721   0.22292   1.000
    N34     N    0.11895   0.74843   0.21927   1.000
    O35     O    0.21924   0.85476   0.35094   1.000
    O36     O    0.10049   0.68257   0.30365   1.000
    O37     O    0.22292   0.66262   0.55721   1.000
    N38     N    0.25157   0.78068   0.88105   1.000
    O39     O    0.14523   0.64903   0.78077   1.000
    O40     O    0.31743   0.69634   0.89951   1.000
    O41     O    0.33739   0.44281   0.77710   1.000
loop_
    _geom_bond_atom_site_label_1
    _geom_bond_atom_site_label_2
    _geom_bond_distance
    _geom_bond_site_symmetry_2
    _ccdc_geom_bond_type
    Zr11   O12       1.31534      .   S
    Zr5    O12       1.31534      .   S
    Zr10   O13       1.31533      .   S
    Zr4    O13       1.31533      .   S
    Zr3    O14       1.31500      .   S
    Zr9    O14       1.31500      .   S
    Zr1    O15       1.31532      .   S
    Zr7    O15       1.31532      .   S
    Zr6    O16       1.31537      .   S
    Zr0    O16       1.31537      .   S
    Zr2    O17       1.31533      .   S
    Zr8    O17       1.31533      .   S
    N18    O19       1.71145      .   S
    Zr2    O19       2.76477  1_556   S
    N18    O20       1.71969      .   S
    Zr1    O20       2.78295      .   S
    N18    O21       5.06764      .   S
    Zr1    O21       2.34235      .   S
    N22    O23       1.71139      .   S
    Zr1    O23       2.76477  1_565   S
    N22    O24       1.71961      .   S
    Zr0    O24       2.78297      .   S
    N22    O25       5.06761      .   S
    Zr0    O25       2.34233      .   S
    N26    O27       1.71148      .   S
    Zr5    O27       2.76480  1_554   S
    N26    O28       1.71962      .   S
    Zr4    O28       2.78287      .   S
    N26    O29       5.06752      .   S
    Zr4    O29       2.34235      .   S
    N30    O31       1.71150      .   S
    Zr3    O31       2.76505  1_455   S
    N30    O32       1.71969      .   S
    Zr5    O32       2.78297      .   S
    N30    O33       5.06758      .   S
    Zr5    O33       2.34235      .   S
    N34    O35       1.71155      .   S
    Zr4    O35       2.76507  1_545   S
    N34    O36       1.72015      .   S
    Zr3    O36       2.78345      .   S
    N34    O37       5.06858      .   S
    Zr3    O37       2.34228      .   S
    N38    O39       1.71147      .   S
    Zr0    O39       2.76497  1_655   S
    N38    O40       1.71966      .   S
    Zr2    O40       2.78305      .   S
    N38    O41       5.06756      .   S
    Zr2    O41       2.34234      .   S
