# CIF file generated by openbabel 2.4.90, see http://openbabel.sf.net
data_I
_chemical_name_common ''
_cell_length_a 13.841
_cell_length_b 13.841
_cell_length_c 13.841
_cell_angle_alpha 108.007
_cell_angle_beta 108.003
_cell_angle_gamma 108.002
_space_group_name_H-M_alt 'P 1'
_space_group_name_Hall 'P 1'
loop_
    _symmetry_equiv_pos_as_xyz
    x,y,z
loop_
    _atom_site_label
    _atom_site_type_symbol
    _atom_site_fract_x
    _atom_site_fract_y
    _atom_site_fract_z
    _atom_site_occupancy
    C0      C    0.95505   0.46150   0.59885   1.000
    C1      C    0.59881   0.95510   0.46151   1.000
    C2      C    0.46148   0.59884   0.95512   1.000
    C3      C    0.04492   0.53851   0.40118   1.000
    C4      C    0.40116   0.04492   0.53851   1.000
    C5      C    0.53848   0.40117   0.04490   1.000
    C6      C    0.71260   0.48531   0.41362   1.000
    C7      C    0.55012   0.12894   0.24281   1.000
    C8      C    0.70111   0.09045   0.36055   1.000
    C9      C    0.83670   0.19565   0.39750   1.000
    C10     C    0.01676   0.45996   0.86223   1.000
    C11     C    0.00880   0.39325   0.00936   1.000
    C12     C    0.88394   0.19374   0.95408   1.000
    C13     C    0.76262   0.05394   0.75078   1.000
    C14     C    0.41360   0.71264   0.48531   1.000
    C15     C    0.24281   0.55013   0.12894   1.000
    C16     C    0.36053   0.70113   0.09045   1.000
    C17     C    0.39746   0.83673   0.19565   1.000
    C18     C    0.86217   0.01678   0.45997   1.000
    C19     C    0.00938   0.00882   0.39326   1.000
    C20     C    0.95405   0.88399   0.19375   1.000
    C21     C    0.75076   0.76265   0.05395   1.000
    C22     C    0.48530   0.41363   0.71260   1.000
    C23     C    0.12894   0.24282   0.55015   1.000
    C24     C    0.09045   0.36055   0.70115   1.000
    C25     C    0.19564   0.39749   0.83675   1.000
    C26     C    0.45994   0.86221   0.01677   1.000
    C27     C    0.39323   0.00937   0.00880   1.000
    C28     C    0.19373   0.95408   0.88399   1.000
    C29     C    0.05394   0.75079   0.76265   1.000
    C30     C    0.28737   0.51471   0.58641   1.000
    C31     C    0.44985   0.87108   0.75721   1.000
    C32     C    0.29886   0.90956   0.63947   1.000
    C33     C    0.16327   0.80436   0.60250   1.000
    C34     C    0.98320   0.54006   0.13700   1.000
    C35     C    0.99117   0.60677   0.99066   1.000
    C36     C    0.11603   0.80627   0.04594   1.000
    C37     C    0.23736   0.94608   0.24924   1.000
    C38     C    0.58637   0.28738   0.51471   1.000
    C39     C    0.75716   0.44988   0.87109   1.000
    C40     C    0.63944   0.29888   0.90957   1.000
    C41     C    0.60251   0.16328   0.80437   1.000
    C42     C    0.13780   0.98324   0.54000   1.000
    C43     C    0.99059   0.99120   0.60676   1.000
    C44     C    0.04592   0.11602   0.80620   1.000
    C45     C    0.24921   0.23736   0.94608   1.000
    C46     C    0.51467   0.58639   0.28737   1.000
    C47     C    0.87103   0.75719   0.44987   1.000
    C48     C    0.90952   0.63946   0.29887   1.000
    C49     C    0.80433   0.60252   0.16327   1.000
    C50     C    0.54003   0.13781   0.98320   1.000
    C51     C    0.60674   0.99064   0.99122   1.000
    C52     C    0.80624   0.04593   0.11603   1.000
    C53     C    0.94603   0.24923   0.23737   1.000
    C54     C    0.69294   0.39650   0.38769   1.000
    C55     C    0.60948   0.21713   0.30019   1.000
    C56     C    0.76344   0.17921   0.41672   1.000
    C57     C    0.80093   0.20225   0.53889   1.000
    C58     C    0.89360   0.29317   0.72367   1.000
    C59     C    0.96207   0.37209   0.83800   1.000
    C60     C    0.95693   0.33410   0.91948   1.000
    C61     C    0.88604   0.22020   0.88796   1.000
    C62     C    0.81786   0.14126   0.77431   1.000
    C63     C    0.82083   0.17883   0.69158   1.000
    C64     C    0.38767   0.69297   0.39650   1.000
    C65     C    0.30018   0.60950   0.21713   1.000
    C66     C    0.41669   0.76347   0.17921   1.000
    C67     C    0.53885   0.80097   0.20226   1.000
    C68     C    0.72363   0.89366   0.29317   1.000
    C69     C    0.83815   0.96212   0.37210   1.000
    C70     C    0.91944   0.95699   0.33411   1.000
    C71     C    0.88793   0.88609   0.22021   1.000
    C72     C    0.77428   0.81790   0.14127   1.000
    C73     C    0.69155   0.82086   0.17884   1.000
    C74     C    0.39650   0.38770   0.69299   1.000
    C75     C    0.21713   0.30020   0.60952   1.000
    C76     C    0.17920   0.41672   0.76349   1.000
    C77     C    0.20224   0.53888   0.80090   1.000
    C78     C    0.29315   0.72366   0.89366   1.000
    C79     C    0.37207   0.83819   0.96213   1.000
    C80     C    0.33409   0.91948   0.95699   1.000
    C81     C    0.22019   0.88796   0.88609   1.000
    C82     C    0.14125   0.77431   0.81790   1.000
    C83     C    0.17883   0.69158   0.82087   1.000
    C84     C    0.30703   0.60351   0.61233   1.000
    C85     C    0.39049   0.78288   0.69983   1.000
    C86     C    0.23653   0.82080   0.58330   1.000
    C87     C    0.19904   0.79776   0.46114   1.000
    C88     C    0.10636   0.70685   0.27635   1.000
    C89     C    0.03790   0.62792   0.16183   1.000
    C90     C    0.04304   0.66591   0.08054   1.000
    C91     C    0.11393   0.77981   0.11206   1.000
    C92     C    0.18211   0.85875   0.22572   1.000
    C93     C    0.17915   0.82118   0.30844   1.000
    C94     C    0.61230   0.30704   0.60352   1.000
    C95     C    0.69979   0.39051   0.78289   1.000
    C96     C    0.58328   0.23654   0.82081   1.000
    C97     C    0.46112   0.19905   0.79777   1.000
    C98     C    0.27634   0.10637   0.70685   1.000
    C99     C    0.16182   0.03789   0.62790   1.000
    C100    C    0.08053   0.04303   0.66591   1.000
    C101    C    0.11204   0.11392   0.77982   1.000
    C102    C    0.22569   0.18212   0.85875   1.000
    C103    C    0.30842   0.17915   0.82110   1.000
    C104    C    0.60347   0.61232   0.30703   1.000
    C105    C    0.78284   0.69982   0.39050   1.000
    C106    C    0.82077   0.58330   0.23653   1.000
    C107    C    0.79773   0.46113   0.19904   1.000
    C108    C    0.70682   0.27635   0.10636   1.000
    C109    C    0.62790   0.16183   0.03789   1.000
    C110    C    0.66588   0.08054   0.04303   1.000
    C111    C    0.77978   0.11205   0.11393   1.000
    C112    C    0.85872   0.22571   0.18212   1.000
    C113    C    0.82115   0.30843   0.17915   1.000
    C114    C    0.59561   0.30809   0.29905   1.000
    C115    C    0.76557   0.36502   0.44291   1.000
    C116    C    0.71037   0.24902   0.38629   1.000
    C117    C    0.88082   0.30510   0.62514   1.000
    C118    C    0.76205   0.12274   0.57325   1.000
    C119    C    0.29904   0.59564   0.30809   1.000
    C120    C    0.44288   0.76561   0.36502   1.000
    C121    C    0.38626   0.71040   0.24902   1.000
    C122    C    0.62510   0.88086   0.30510   1.000
    C123    C    0.57322   0.76210   0.12274   1.000
    C124    C    0.30809   0.29906   0.59565   1.000
    C125    C    0.36501   0.44291   0.76563   1.000
    C126    C    0.24901   0.38628   0.71042   1.000
    C127    C    0.30508   0.62513   0.88080   1.000
    C128    C    0.12272   0.57325   0.76211   1.000
    C129    C    0.40436   0.69192   0.70090   1.000
    C130    C    0.23440   0.63500   0.55711   1.000
    C131    C    0.28960   0.75100   0.61374   1.000
    C132    C    0.11915   0.69492   0.37489   1.000
    C133    C    0.23791   0.87728   0.42670   1.000
    C134    C    0.70093   0.40438   0.69193   1.000
    C135    C    0.55709   0.23441   0.63500   1.000
    C136    C    0.61371   0.28962   0.75101   1.000
    C137    C    0.37487   0.11915   0.69492   1.000
    C138    C    0.42675   0.23792   0.87728   1.000
    C139    C    0.69188   0.70095   0.40437   1.000
    C140    C    0.63496   0.55710   0.23440   1.000
    C141    C    0.75096   0.61373   0.28960   1.000
    C142    C    0.69489   0.37489   0.11915   1.000
    C143    C    0.87725   0.42677   0.23790   1.000
    C144    C    0.96304   0.62428   0.53694   1.000
    C145    C    0.53691   0.96308   0.62429   1.000
    C146    C    0.62426   0.53694   0.96311   1.000
    C147    C    0.03693   0.37573   0.46300   1.000
    C148    C    0.46306   0.03693   0.37573   1.000
    C149    C    0.37570   0.46307   0.03692   1.000
    O150    O    0.36366   0.96442   0.98289   1.000
    O151    O    0.98286   0.36368   0.96442   1.000
    O152    O    0.41601   0.85020   0.98945   1.000
    O153    O    0.45709   0.43212   0.04091   1.000
    O154    O    0.64689   0.12118   0.04046   1.000
    O155    O    0.66736   0.21909   0.07212   1.000
    O156    O    0.58396   0.14982   0.01054   1.000
    O157    O    0.72283   0.09630   0.07848   1.000
    O158    O    0.63631   0.03559   0.01712   1.000
    O159    O    0.61669   0.38803   0.08202   1.000
    O160    O    0.58672   0.47914   0.13965   1.000
    O161    O    0.48262   0.31955   0.96109   1.000
    O162    O    0.11498   0.79304   0.07900   1.000
    O163    O    0.76252   0.79027   0.09761   1.000
    O164    O    0.07848   0.72286   0.09630   1.000
    O165    O    0.04047   0.64692   0.12118   1.000
    O166    O    0.01710   0.63634   0.03560   1.000
    O167    O    0.38861   0.73230   0.13483   1.000
    O168    O    0.70086   0.32562   0.11275   1.000
    O169    O    0.76398   0.29239   0.14275   1.000
    O170    O    0.14802   0.81928   0.16889   1.000
    O171    O    0.79301   0.07899   0.11498   1.000
    O172    O    0.81925   0.16888   0.14802   1.000
    O173    O    0.74631   0.41801   0.15909   1.000
    O174    O    0.63239   0.79148   0.15079   1.000
    O175    O    0.55604   0.78153   0.16250   1.000
    O176    O    0.51735   0.68047   0.03893   1.000
    O177    O    0.27150   0.57982   0.17303   1.000
    O178    O    0.01055   0.58399   0.14941   1.000
    O179    O    0.73291   0.81938   0.16005   1.000
    O180    O    0.83110   0.85199   0.18074   1.000
    O181    O    0.07213   0.66739   0.21909   1.000
    O182    O    0.81255   0.59291   0.19990   1.000
    O183    O    0.70759   0.85726   0.23600   1.000
    O184    O    0.83993   0.26707   0.18063   1.000
    O185    O    0.84920   0.36760   0.20852   1.000
    O186    O    0.40708   0.80010   0.18743   1.000
    O187    O    0.47777   0.78222   0.19073   1.000
    O188    O    0.40147   0.73694   0.21411   1.000
    O189    O    0.90237   0.23747   0.20974   1.000
    O190    O    0.92099   0.88504   0.20698   1.000
    O191    O    0.80925   0.52222   0.21778   1.000
    O192    O    0.83749   0.44395   0.21847   1.000
    O193    O    0.58197   0.84091   0.25368   1.000
    O194    O    0.34322   0.65995   0.23307   1.000
    O195    O    0.29961   0.60257   0.26261   1.000
    O196    O    0.90368   0.92154   0.27716   1.000
    O197    O    0.20973   0.90241   0.23748   1.000
    O198    O    0.18063   0.83997   0.26708   1.000
    O199    O    0.69296   0.58542   0.26200   1.000
    O200    O    0.61922   0.58471   0.27071   1.000
    O201    O    0.78587   0.59852   0.26306   1.000
    O202    O    0.86515   0.61138   0.26770   1.000
    O203    O    0.96108   0.48264   0.31954   1.000
    O204    O    0.57980   0.17303   0.27150   1.000
    O205    O    0.41457   0.73800   0.30702   1.000
    O206    O    0.14275   0.76402   0.29239   1.000
    O207    O    0.11276   0.70089   0.32562   1.000
    O208    O    0.55907   0.59935   0.29720   1.000
    O209    O    0.76690   0.65678   0.34005   1.000
    O210    O    0.67436   0.88726   0.29913   1.000
    O211    O    0.78089   0.92789   0.33263   1.000
    O212    O    0.60255   0.26261   0.29962   1.000
    O213    O    0.64428   0.35230   0.34337   1.000
    O214    O    0.65992   0.23307   0.34324   1.000
    O215    O    0.61195   0.91798   0.38330   1.000
    O216    O    0.64768   0.65664   0.35570   1.000
    O217    O    0.34336   0.64430   0.35229   1.000
    O218    O    0.20853   0.84923   0.36757   1.000
    O219    O    0.87879   0.95956   0.35310   1.000
    O220    O    0.96441   0.98290   0.36368   1.000
    O221    O    0.73227   0.13483   0.38863   1.000
    O222    O    0.41528   0.72929   0.38076   1.000
    O223    O    0.52085   0.86035   0.41326   1.000
    O224    O    0.85016   0.98945   0.41603   1.000
    O225    O    0.08203   0.61672   0.38803   1.000
    O226    O    0.15910   0.74634   0.41801   1.000
    O227    O    0.43211   0.04093   0.45712   1.000
    O228    O    0.73690   0.21412   0.40150   1.000
    O229    O    0.73797   0.30702   0.41460   1.000
    O230    O    0.70277   0.44090   0.40065   1.000
    O231    O    0.72925   0.38076   0.41530   1.000
    O232    O    0.73736   0.70039   0.39743   1.000
    O233    O    0.82694   0.72851   0.42018   1.000
    O234    O    0.40064   0.70281   0.44090   1.000
    O235    O    0.80007   0.18743   0.40711   1.000
    O236    O    0.04092   0.45712   0.43209   1.000
    O237    O    0.13966   0.58675   0.47914   1.000
    O238    O    0.78219   0.19073   0.47780   1.000
    O239    O    0.21847   0.83752   0.44392   1.000
    O240    O    0.31953   0.96110   0.48260   1.000
    O241    O    0.86031   0.41326   0.52088   1.000
    O242    O    0.21778   0.80928   0.52222   1.000
    O243    O    0.68043   0.03892   0.51738   1.000
    O244    O    0.56786   0.95909   0.54290   1.000
    O245    O    0.59933   0.29721   0.55911   1.000
    O246    O    0.95905   0.54289   0.56789   1.000
    O247    O    0.47912   0.13966   0.58675   1.000
    O248    O    0.38802   0.08203   0.61671   1.000
    O249    O    0.78149   0.16249   0.55607   1.000
    O250    O    0.84088   0.25367   0.58201   1.000
    O251    O    0.14981   0.01056   0.58395   1.000
    O252    O    0.17304   0.27151   0.57983   1.000
    O253    O    0.27071   0.61926   0.58472   1.000
    O254    O    0.26200   0.69300   0.58542   1.000
    O255    O    0.79144   0.15079   0.63241   1.000
    O256    O    0.19990   0.81258   0.59290   1.000
    O257    O    0.26306   0.78590   0.59852   1.000
    O258    O    0.26770   0.86518   0.61138   1.000
    O259    O    0.29720   0.55911   0.59937   1.000
    O260    O    0.26261   0.29963   0.60258   1.000
    O261    O    0.35229   0.34338   0.64432   1.000
    O262    O    0.91794   0.38330   0.61199   1.000
    O263    O    0.03889   0.51738   0.68048   1.000
    O264    O    0.58469   0.27073   0.61926   1.000
    O265    O    0.65661   0.35571   0.64772   1.000
    O266    O    0.03556   0.01711   0.63633   1.000
    O267    O    0.23307   0.34324   0.65997   1.000
    O268    O    0.35569   0.64772   0.65661   1.000
    O269    O    0.34005   0.76694   0.65678   1.000
    O270    O    0.88721   0.29913   0.67440   1.000
    O271    O    0.12118   0.04046   0.64690   1.000
    O272    O    0.21908   0.07213   0.66737   1.000
    O273    O    0.58540   0.26201   0.69300   1.000
    O274    O    0.09629   0.07848   0.72286   1.000
    O275    O    0.85721   0.23600   0.70762   1.000
    O276    O    0.81934   0.16005   0.73294   1.000
    O277    O    0.70036   0.39745   0.73741   1.000
    O278    O    0.44090   0.40067   0.70279   1.000
    O279    O    0.38075   0.41531   0.72931   1.000
    O280    O    0.32561   0.11276   0.70088   1.000
    O281    O    0.41800   0.15910   0.74634   1.000
    O282    O    0.39742   0.73740   0.70036   1.000
    O283    O    0.42017   0.82698   0.72852   1.000
    O284    O    0.13482   0.38863   0.73232   1.000
    O285    O    0.29238   0.14276   0.76397   1.000
    O286    O    0.21410   0.40150   0.73695   1.000
    O287    O    0.30701   0.41460   0.73802   1.000
    O288    O    0.92783   0.33263   0.78083   1.000
    O289    O    0.79024   0.09760   0.76254   1.000
    O290    O    0.65675   0.34006   0.76695   1.000
    O291    O    0.59850   0.26308   0.78591   1.000
    O292    O    0.16248   0.55606   0.78150   1.000
    O293    O    0.15077   0.63241   0.79149   1.000
    O294    O    0.09759   0.76255   0.79027   1.000
    O295    O    0.19072   0.47780   0.78219   1.000
    O296    O    0.18742   0.40710   0.80012   1.000
    O297    O    0.41324   0.52088   0.86037   1.000
    O298    O    0.85195   0.18073   0.83113   1.000
    O299    O    0.07898   0.11497   0.79301   1.000
    O300    O    0.16887   0.14802   0.81928   1.000
    O301    O    0.72847   0.42020   0.82699   1.000
    O302    O    0.52220   0.21780   0.80929   1.000
    O303    O    0.44393   0.21849   0.83752   1.000
    O304    O    0.25366   0.58201   0.84085   1.000
    O305    O    0.59289   0.19991   0.81259   1.000
    O306    O    0.16004   0.73294   0.81938   1.000
    O307    O    0.18072   0.83114   0.85199   1.000
    O308    O    0.61136   0.26771   0.86519   1.000
    O309    O    0.23599   0.70762   0.85726   1.000
    O310    O    0.26706   0.18063   0.83992   1.000
    O311    O    0.36758   0.20854   0.84919   1.000
    O312    O    0.98942   0.41603   0.85011   1.000
    O313    O    0.95950   0.35310   0.87874   1.000
    O314    O    0.23745   0.20974   0.90241   1.000
    O315    O    0.29911   0.67440   0.88723   1.000
    O316    O    0.38328   0.61199   0.91796   1.000
    O317    O    0.20696   0.92102   0.88504   1.000
    O318    O    0.27714   0.90372   0.92154   1.000
    O319    O    0.92149   0.27715   0.90372   1.000
    O320    O    0.88499   0.20697   0.92102   1.000
    O321    O    0.33261   0.78092   0.92789   1.000
    O322    O    0.54287   0.56789   0.95911   1.000
    O323    O    0.35308   0.87883   0.95956   1.000
loop_
    _geom_bond_atom_site_label_1
    _geom_bond_atom_site_label_2
    _geom_bond_distance
    _geom_bond_site_symmetry_2
    _ccdc_geom_bond_type
    C27    O150      0.54509  1_544   S
    C80    O150      0.54509      .   S
    C11    O151      0.54502  1_454   S
    C60    O151      0.54502      .   S
    C26    O152      0.54488  1_554   S
    C79    O152      0.54488      .   S
    C149   O153      1.31534      .   S
    C5     O153      1.31534      .   S
    C109   O154      0.69631      .   S
    C110   O154      0.69631      .   S
    C109   O155      0.70090      .   S
    C108   O155      0.70090      .   S
    C109   O156      0.54497      .   S
    C50    O156      0.54497  1_556   S
    C110   O157      0.70580      .   S
    C111   O157      0.70580      .   S
    C110   O158      0.54508      .   S
    C51    O158      0.54508  1_566   S
    C5     O159      1.14210      .   S
    C142   O159      1.14210      .   S
    C5     O160      1.21186      .   S
    C140   O160      1.21186      .   S
    C5     O161      1.14683  1_554   S
    C138   O161      1.14683      .   S
    C36    O162      0.54534      .   S
    C91    O162      0.54534      .   S
    C21    O163      0.54383      .   S
    C72    O163      0.54383      .   S
    C90    O164      0.70578      .   S
    C91    O164      0.70578      .   S
    C90    O165      0.69634      .   S
    C89    O165      0.69634      .   S
    C90    O166      0.54502      .   S
    C35    O166      0.54502  1_656   S
    C16    O167      0.54722      .   S
    C66    O167      0.54722      .   S
    C108   O168      0.69402      .   S
    C142   O168      0.69402      .   S
    C108   O169      0.71058      .   S
    C113   O169      0.71058      .   S
    C91    O170      0.69669      .   S
    C92    O170      0.69669      .   S
    C111   O171      0.54532      .   S
    C52    O171      0.54532      .   S
    C111   O172      0.69667      .   S
    C112   O172      0.69667      .   S
    C142   O173      0.67723      .   S
    C107   O173      0.67723      .   S
    C123   O174      0.69765      .   S
    C73    O174      0.69765      .   S
    C123   O175      0.67877      .   S
    C67    O175      0.67877      .   S
    C123   O176      1.14685      .   S
    C2     O176      1.14685  1_556   S
    C15    O177      0.54155      .   S
    C65    O177      0.54155      .   S
    C34    O178      0.54360  1_655   S
    C89    O178      0.54360      .   S
    C72    O179      0.70125      .   S
    C73    O179      0.70125      .   S
    C72    O180      0.69667      .   S
    C71    O180      0.69667      .   S
    C89    O181      0.70088      .   S
    C88    O181      0.70088      .   S
    C49    O182      0.55053      .   S
    C106   O182      0.55053      .   S
    C73    O183      0.71061      .   S
    C68    O183      0.71061      .   S
    C113   O184      0.70127      .   S
    C112   O184      0.70127      .   S
    C113   O185      0.69766      .   S
    C143   O185      0.69766      .   S
    C66    O186      0.55052      .   S
    C17    O186      0.55052      .   S
    C66    O187      0.75032      .   S
    C67    O187      0.75032      .   S
    C66    O188      0.73311      .   S
    C121   O188      0.73311      .   S
    C112   O189      0.54383      .   S
    C53    O189      0.54383      .   S
    C20    O190      0.54532      .   S
    C71    O190      0.54532      .   S
    C107   O191      0.75034      .   S
    C106   O191      0.75034      .   S
    C107   O192      0.67872      .   S
    C143   O192      0.67872      .   S
    C67    O193      0.67721      .   S
    C122   O193      0.67721      .   S
    C65    O194      0.67639      .   S
    C121   O194      0.67639      .   S
    C65    O195      0.66743      .   S
    C119   O195      0.66743      .   S
    C71    O196      0.70578      .   S
    C70    O196      0.70578      .   S
    C92    O197      0.54385      .   S
    C37    O197      0.54385      .   S
    C92    O198      0.70125      .   S
    C93    O198      0.70125      .   S
    C140   O199      0.68364      .   S
    C141   O199      0.68364      .   S
    C140   O200      0.66826      .   S
    C104   O200      0.66826      .   S
    C106   O201      0.73306      .   S
    C141   O201      0.73306      .   S
    C106   O202      0.54721      .   S
    C48    O202      0.54721      .   S
    C143   O203      1.14714      .   S
    C3     O203      1.14714  1_455   S
    C7     O204      0.54157      .   S
    C55    O204      0.54157      .   S
    C121   O205      0.68364      .   S
    C120   O205      0.68364      .   S
    C88    O206      0.71058      .   S
    C93    O206      0.71058      .   S
    C88    O207      0.69407      .   S
    C132   O207      0.69407      .   S
    C46    O208      0.54173      .   S
    C104   O208      0.54173      .   S
    C141   O209      0.67641      .   S
    C105   O209      0.67641      .   S
    C68    O210      0.69401      .   S
    C122   O210      0.69401      .   S
    C68    O211      0.70090      .   S
    C69    O211      0.70090      .   S
    C114   O212      0.66743      .   S
    C55    O212      0.66743      .   S
    C114   O213      0.67982      .   S
    C54    O213      0.67982      .   S
    C55    O214      0.67641      .   S
    C116   O214      0.67641      .   S
    C122   O215      1.14209      .   S
    C1     O215      1.14209      .   S
    C104   O216      0.67984      .   S
    C139   O216      0.67984      .   S
    C119   O217      0.67982      .   S
    C64    O217      0.67982      .   S
    C93    O218      0.69724      .   S
    C133   O218      0.69724      .   S
    C70    O219      0.69632      .   S
    C69    O219      0.69632      .   S
    C70    O220      0.54532      .   S
    C19    O220      0.54532  1_445   S
    C8     O221      0.54722      .   S
    C56    O221      0.54722      .   S
    C120   O222      0.66826      .   S
    C64    O222      0.66826      .   S
    C120   O223      1.21185      .   S
    C1     O223      1.21185      .   S
    C69    O224      0.54492      .   S
    C18    O224      0.54492  1_545   S
    C132   O225      1.14213      .   S
    C3     O225      1.14213      .   S
    C132   O226      0.67724      .   S
    C87    O226      0.67724      .   S
    C148   O227      1.31533      .   S
    C4     O227      1.31533      .   S
    C116   O228      0.73305      .   S
    C56    O228      0.73305      .   S
    C116   O229      0.68364      .   S
    C115   O229      0.68364      .   S
    C54    O230      0.54172      .   S
    C6     O230      0.54172      .   S
    C54    O231      0.66827      .   S
    C115   O231      0.66827      .   S
    C105   O232      0.66744      .   S
    C139   O232      0.66744      .   S
    C105   O233      0.54157      .   S
    C47    O233      0.54157      .   S
    C64    O234      0.54175      .   S
    C14    O234      0.54175      .   S
    C9     O235      0.55052      .   S
    C56    O235      0.55052      .   S
    C3     O236      1.31500      .   S
    C147   O236      1.31500      .   S
    C3     O237      1.21182      .   S
    C130   O237      1.21182      .   S
    C56    O238      0.75038      .   S
    C57    O238      0.75038      .   S
    C133   O239      0.67913      .   S
    C87    O239      0.67913      .   S
    C133   O240      1.14695      .   S
    C4     O240      1.14695  1_545   S
    C115   O241      1.21185      .   S
    C0     O241      1.21185      .   S
    C87    O242      0.75031      .   S
    C86    O242      0.75031      .   S
    C1     O243      1.14690  1_565   S
    C118   O243      1.14690      .   S
    C1     O244      1.31532      .   S
    C145   O244      1.31532      .   S
    C38    O245      0.54175      .   S
    C94    O245      0.54175      .   S
    C144   O246      1.31537      .   S
    C0     O246      1.31537      .   S
    C4     O247      1.21185      .   S
    C135   O247      1.21185      .   S
    C4     O248      1.14208      .   S
    C137   O248      1.14208      .   S
    C57    O249      0.67873      .   S
    C118   O249      0.67873      .   S
    C57    O250      0.67723      .   S
    C117   O250      0.67723      .   S
    C42    O251      0.54507  1_565   S
    C99    O251      0.54507      .   S
    C23    O252      0.54157      .   S
    C75    O252      0.54157      .   S
    C130   O253      0.66828      .   S
    C84    O253      0.66828      .   S
    C130   O254      0.68364      .   S
    C131   O254      0.68364      .   S
    C118   O255      0.69765      .   S
    C63    O255      0.69765      .   S
    C86    O256      0.55044      .   S
    C33    O256      0.55044      .   S
    C86    O257      0.73308      .   S
    C131   O257      0.73308      .   S
    C86    O258      0.54721      .   S
    C32    O258      0.54721      .   S
    C30    O259      0.54173      .   S
    C84    O259      0.54173      .   S
    C124   O260      0.66744      .   S
    C75    O260      0.66744      .   S
    C124   O261      0.67983      .   S
    C74    O261      0.67983      .   S
    C0     O262      1.14214      .   S
    C117   O262      1.14214      .   S
    C0     O263      1.14708  1_655   S
    C128   O263      1.14708      .   S
    C94    O264      0.66825      .   S
    C135   O264      0.66825      .   S
    C94    O265      0.67983      .   S
    C134   O265      0.67983      .   S
    C43    O266      0.54533  1_665   S
    C100   O266      0.54533      .   S
    C75    O267      0.67641      .   S
    C126   O267      0.67641      .   S
    C84    O268      0.67967      .   S
    C129   O268      0.67967      .   S
    C131   O269      0.67638      .   S
    C85    O269      0.67638      .   S
    C117   O270      0.69400      .   S
    C58    O270      0.69400      .   S
    C99    O271      0.69641      .   S
    C100   O271      0.69641      .   S
    C99    O272      0.70093      .   S
    C98    O272      0.70093      .   S
    C135   O273      0.68370      .   S
    C136   O273      0.68370      .   S
    C100   O274      0.70582      .   S
    C101   O274      0.70582      .   S
    C63    O275      0.71058      .   S
    C58    O275      0.71058      .   S
    C63    O276      0.70131      .   S
    C62    O276      0.70131      .   S
    C134   O277      0.66744      .   S
    C95    O277      0.66744      .   S
    C74    O278      0.54180      .   S
    C22    O278      0.54180      .   S
    C74    O279      0.66831      .   S
    C125   O279      0.66831      .   S
    C137   O280      0.69402      .   S
    C98    O280      0.69402      .   S
    C137   O281      0.67725      .   S
    C97    O281      0.67725      .   S
    C85    O282      0.66731      .   S
    C129   O282      0.66731      .   S
    C85    O283      0.54158      .   S
    C31    O283      0.54158      .   S
    C24    O284      0.54721      .   S
    C76    O284      0.54721      .   S
    C98    O285      0.71013      .   S
    C103   O285      0.71013      .   S
    C126   O286      0.73306      .   S
    C76    O286      0.73306      .   S
    C126   O287      0.68364      .   S
    C125   O287      0.68364      .   S
    C58    O288      0.69999      .   S
    C59    O288      0.69999      .   S
    C13    O289      0.54383      .   S
    C62    O289      0.54383      .   S
    C136   O290      0.67640      .   S
    C95    O290      0.67640      .   S
    C136   O291      0.73305      .   S
    C96    O291      0.73305      .   S
    C128   O292      0.67860      .   S
    C77    O292      0.67860      .   S
    C128   O293      0.69766      .   S
    C83    O293      0.69766      .   S
    C29    O294      0.54383      .   S
    C82    O294      0.54383      .   S
    C76    O295      0.75038      .   S
    C77    O295      0.75038      .   S
    C76    O296      0.55053      .   S
    C25    O296      0.55053      .   S
    C125   O297      1.21181      .   S
    C2     O297      1.21181      .   S
    C62    O298      0.69664      .   S
    C61    O298      0.69664      .   S
    C101   O299      0.54500      .   S
    C44    O299      0.54500      .   S
    C101   O300      0.69666      .   S
    C102   O300      0.69666      .   S
    C95    O301      0.54160      .   S
    C39    O301      0.54160      .   S
    C97    O302      0.75034      .   S
    C96    O302      0.75034      .   S
    C97    O303      0.67872      .   S
    C138   O303      0.67872      .   S
    C77    O304      0.67725      .   S
    C127   O304      0.67725      .   S
    C41    O305      0.55053      .   S
    C96    O305      0.55053      .   S
    C82    O306      0.70127      .   S
    C83    O306      0.70127      .   S
    C82    O307      0.69668      .   S
    C81    O307      0.69668      .   S
    C96    O308      0.54722      .   S
    C40    O308      0.54722      .   S
    C83    O309      0.71057      .   S
    C78    O309      0.71057      .   S
    C103   O310      0.70161      .   S
    C102   O310      0.70161      .   S
    C103   O311      0.69766      .   S
    C138   O311      0.69766      .   S
    C59    O312      0.54463      .   S
    C10    O312      0.54463  1_455   S
    C59    O313      0.69758      .   S
    C60    O313      0.69758      .   S
    C102   O314      0.54388      .   S
    C45    O314      0.54388      .   S
    C127   O315      0.69395      .   S
    C78    O315      0.69395      .   S
    C127   O316      1.14220      .   S
    C2     O316      1.14220      .   S
    C28    O317      0.54532      .   S
    C81    O317      0.54532      .   S
    C81    O318      0.70579      .   S
    C80    O318      0.70579      .   S
    C61    O319      0.70579      .   S
    C60    O319      0.70579      .   S
    C61    O320      0.54534      .   S
    C12    O320      0.54534      .   S
    C78    O321      0.70090      .   S
    C79    O321      0.70090      .   S
    C2     O322      1.31533      .   S
    C146   O322      1.31533      .   S
    C80    O323      0.69631      .   S
    C79    O323      0.69631      .   S
