# CIF file generated by openbabel 2.4.90, see http://openbabel.sf.net
data_I
_chemical_name_common ''
_cell_length_a 14.308
_cell_length_b 15.844
_cell_length_c 15.845
_cell_angle_alpha 78.291
_cell_angle_beta 63.23
_cell_angle_gamma 63.229
_space_group_name_H-M_alt 'P 1'
_space_group_name_Hall 'P 1'
loop_
    _symmetry_equiv_pos_as_xyz
    x,y,z
loop_
    _atom_site_label
    _atom_site_type_symbol
    _atom_site_fract_x
    _atom_site_fract_y
    _atom_site_fract_z
    _atom_site_occupancy
    Lv0     Lv   0.28343   0.27010   0.69856   1.000
    Lv1     Lv   0.78336   0.69863   0.27003   1.000
    Lv2     Lv   0.01698   0.69954   0.72987   1.000
    Lv3     Lv   0.94629   0.26993   0.30064   1.000
    Lv4     Lv   0.44686   0.30072   0.26983   1.000
    Lv5     Lv   0.75275   0.30026   0.72998   1.000
    Lv6     Lv   0.51701   0.72993   0.69944   1.000
    Lv7     Lv   0.25271   0.73008   0.30018   1.000
