# CIF file generated by openbabel 2.4.90, see http://openbabel.sf.net
data_I
_chemical_name_common ''
_cell_length_a 14.308
_cell_length_b 15.844
_cell_length_c 15.845
_cell_angle_alpha 78.291
_cell_angle_beta 63.23
_cell_angle_gamma 63.229
_space_group_name_H-M_alt 'P 1'
_space_group_name_Hall 'P 1'
loop_
    _symmetry_equiv_pos_as_xyz
    x,y,z
loop_
    _atom_site_label
    _atom_site_type_symbol
    _atom_site_fract_x
    _atom_site_fract_y
    _atom_site_fract_z
    _atom_site_occupancy
    C0      C    0.53510   0.99954   0.42965   1.000
    C1      C    0.96536   0.99960   0.56946   1.000
    C2      C    0.03510   0.42979   0.99945   1.000
    C3      C    0.46538   0.56957   0.99950   1.000
    C4      C    0.23660   0.02678   0.49994   1.000
    C5      C    0.76299   0.97355   0.49977   1.000
    C6      C    0.26293   0.49993   0.97345   1.000
    C7      C    0.73658   0.50007   0.02672   1.000
    C8      C    0.61670   0.34285   0.26244   1.000
    C9      C    0.46046   0.20692   0.40087   1.000
    C10     C    0.50651   0.40376   0.17215   1.000
    C11     C    0.27263   0.27907   0.22614   1.000
    C12     C    0.22145   0.65763   0.73707   1.000
    C13     C    0.06759   0.79306   0.59851   1.000
    C14     C    0.08225   0.59672   0.82750   1.000
    C15     C    0.77750   0.72102   0.77402   1.000
    C16     C    0.12112   0.26357   0.65566   1.000
    C17     C    0.13939   0.40143   0.79205   1.000
    C18     C    0.32126   0.17286   0.59511   1.000
    C19     C    0.50081   0.22509   0.72154   1.000
    C20     C    0.04087   0.73781   0.34166   1.000
    C21     C    0.33287   0.59899   0.20640   1.000
    C22     C    0.09008   0.82810   0.40265   1.000
    C23     C    0.44856   0.77327   0.27945   1.000
    C24     C    0.72150   0.73710   0.65752   1.000
    C25     C    0.56757   0.59859   0.79300   1.000
    C26     C    0.58234   0.82749   0.59656   1.000
    C27     C    0.27753   0.77412   0.72091   1.000
    C28     C    0.11675   0.26251   0.34277   1.000
    C29     C    0.96052   0.40095   0.20682   1.000
    C30     C    0.00000   0.17223   0.40368   1.000
    C31     C    0.77263   0.22626   0.27900   1.000
    C32     C    0.54091   0.34170   0.73776   1.000
    C33     C    0.83290   0.20649   0.59892   1.000
    C34     C    0.59012   0.40273   0.82802   1.000
    C35     C    0.94860   0.27952   0.77300   1.000
    C36     C    0.62112   0.65573   0.26350   1.000
    C37     C    0.63939   0.79213   0.40135   1.000
    C38     C    0.82127   0.59516   0.17280   1.000
    C39     C    0.00000   0.72161   0.22500   1.000
    C40     C    0.30889   0.16672   0.37484   1.000
    C41     C    0.35573   0.40409   0.11392   1.000
    C42     C    0.36194   0.23354   0.31872   1.000
    C43     C    0.44162   0.24306   0.34041   1.000
    C44     C    0.49552   0.30330   0.28718   1.000
    C45     C    0.46683   0.35551   0.21306   1.000
    C46     C    0.38683   0.34624   0.19185   1.000
    C47     C    0.33434   0.28507   0.24402   1.000
    C48     C    0.84992   0.83319   0.62489   1.000
    C49     C    0.87392   0.59599   0.88601   1.000
    C50     C    0.91367   0.76653   0.68100   1.000
    C51     C    0.02452   0.75709   0.65920   1.000
    C52     C    0.08552   0.69707   0.71242   1.000
    C53     C    0.03512   0.64486   0.78664   1.000
    C54     C    0.92471   0.65399   0.80803   1.000
    C55     C    0.86305   0.71508   0.75596   1.000
    C56     C    0.31656   0.37430   0.83332   1.000
    C57     C    0.52983   0.11365   0.59576   1.000
    C58     C    0.31946   0.31841   0.76631   1.000
    C59     C    0.21835   0.34072   0.75616   1.000
    C60     C    0.21758   0.28786   0.69557   1.000
    C61     C    0.32007   0.21346   0.64360   1.000
    C62     C    0.42103   0.19164   0.65354   1.000
    C63     C    0.42142   0.24343   0.71508   1.000
    C64     C    0.52450   0.62471   0.16683   1.000
    C65     C    0.24032   0.88599   0.40383   1.000
    C66     C    0.40473   0.68094   0.23347   1.000
    C67     C    0.31556   0.65946   0.24260   1.000
    C68     C    0.20149   0.71284   0.30251   1.000
    C69     C    0.17799   0.78699   0.35474   1.000
    C70     C    0.26721   0.80799   0.34591   1.000
    C71     C    0.38084   0.75561   0.28511   1.000
    C72     C    0.34989   0.62502   0.83310   1.000
    C73     C    0.37403   0.88601   0.59580   1.000
    C74     C    0.41368   0.68117   0.76645   1.000
    C75     C    0.52451   0.65927   0.75702   1.000
    C76     C    0.58554   0.71248   0.69699   1.000
    C77     C    0.53518   0.78666   0.64472   1.000
    C78     C    0.42479   0.80806   0.65380   1.000
    C79     C    0.36308   0.75604   0.71497   1.000
    C80     C    0.80890   0.37495   0.16660   1.000
    C81     C    0.85571   0.11401   0.40390   1.000
    C82     C    0.86196   0.31883   0.23346   1.000
    C83     C    0.94166   0.34050   0.24298   1.000
    C84     C    0.99554   0.28727   0.30323   1.000
    C85     C    0.96684   0.21315   0.35544   1.000
    C86     C    0.88684   0.19195   0.34610   1.000
    C87     C    0.83435   0.24413   0.28499   1.000
    C88     C    0.02456   0.16690   0.62464   1.000
    C89     C    0.74033   0.40392   0.88590   1.000
    C90     C    0.90477   0.23354   0.68087   1.000
    C91     C    0.81560   0.24268   0.65930   1.000
    C92     C    0.70153   0.30259   0.71277   1.000
    C93     C    0.67803   0.35482   0.78692   1.000
    C94     C    0.76725   0.34599   0.80792   1.000
    C95     C    0.88088   0.28518   0.75554   1.000
    C96     C    0.81656   0.83339   0.37423   1.000
    C97     C    0.02988   0.59588   0.11356   1.000
    C98     C    0.81947   0.76637   0.31835   1.000
    C99     C    0.71836   0.75623   0.34065   1.000
    C100    C    0.71759   0.69563   0.28778   1.000
    C101    C    0.82009   0.64372   0.21339   1.000
    C102    C    0.92104   0.65360   0.19157   1.000
    C103    C    0.92142   0.71514   0.24337   1.000
    C104    C    0.36641   0.09717   0.41661   1.000
    C105    C    0.21366   0.17454   0.38311   1.000
    C106    C    0.30105   0.38437   0.08196   1.000
    C107    C    0.38550   0.47361   0.08208   1.000
    C108    C    0.57208   0.30859   0.31133   1.000
    C109    C    0.87965   0.90280   0.58309   1.000
    C110    C    0.77085   0.82520   0.61663   1.000
    C111    C    0.76756   0.61590   0.91859   1.000
    C112    C    0.94173   0.52619   0.91720   1.000
    C113    C    0.19138   0.69193   0.68821   1.000
    C114    C    0.21725   0.41626   0.90269   1.000
    C115    C    0.40362   0.38222   0.82573   1.000
    C116    C    0.61627   0.08146   0.61568   1.000
    C117    C    0.53195   0.08207   0.52603   1.000
    C118    C    0.11721   0.31263   0.68952   1.000
    C119    C    0.53650   0.58321   0.09703   1.000
    C120    C    0.61185   0.61616   0.17497   1.000
    C121    C    0.31446   0.91815   0.38421   1.000
    C122    C    0.14112   0.91771   0.47328   1.000
    C123    C    0.11966   0.68887   0.30748   1.000
    C124    C    0.37968   0.58315   0.90269   1.000
    C125    C    0.27073   0.61685   0.82521   1.000
    C126    C    0.26769   0.91856   0.61560   1.000
    C127    C    0.44186   0.91719   0.52601   1.000
    C128    C    0.69137   0.68829   0.69191   1.000
    C129    C    0.86641   0.41672   0.09709   1.000
    C130    C    0.71366   0.38322   0.17449   1.000
    C131    C    0.80102   0.08211   0.38420   1.000
    C132    C    0.88547   0.08209   0.47349   1.000
    C133    C    0.07210   0.31142   0.30853   1.000
    C134    C    0.03655   0.09711   0.58310   1.000
    C135    C    0.11192   0.17502   0.61608   1.000
    C136    C    0.81446   0.38436   0.91807   1.000
    C137    C    0.64110   0.47335   0.91762   1.000
    C138    C    0.61970   0.30758   0.68880   1.000
    C139    C    0.71728   0.90283   0.41609   1.000
    C140    C    0.90359   0.82576   0.38226   1.000
    C141    C    0.11624   0.61591   0.08136   1.000
    C142    C    0.03214   0.52609   0.08190   1.000
    C143    C    0.61721   0.68959   0.31255   1.000
    O144    O    0.63654   0.54164   0.06187   1.000
    O145    O    0.80149   0.45839   0.06190   1.000
    O146    O    0.77552   0.44222   0.97240   1.000
    O147    O    0.75207   0.55799   0.97265   1.000
    O148    O    0.07306   0.60590   0.09746   1.000
    O149    O    0.18958   0.55792   0.02741   1.000
    O150    O    0.03101   0.56098   0.09773   1.000
    O151    O    0.03362   0.47794   0.04067   1.000
    O152    O    0.32839   0.39423   0.09794   1.000
    O153    O    0.28199   0.44215   0.02771   1.000
    O154    O    0.37062   0.43885   0.09800   1.000
    O155    O    0.42544   0.52159   0.04079   1.000
    O156    O    0.53050   0.60396   0.13193   1.000
    O157    O    0.83765   0.39584   0.13184   1.000
    O158    O    0.97546   0.62474   0.15256   1.000
    O159    O    0.37128   0.37516   0.15288   1.000
    O160    O    0.76128   0.37909   0.17055   1.000
    O161    O    0.83543   0.34689   0.20003   1.000
    O162    O    0.56818   0.62043   0.17090   1.000
    O163    O    0.46461   0.65283   0.20015   1.000
    O164    O    0.48667   0.37964   0.19260   1.000
    O165    O    0.82068   0.61944   0.19309   1.000
    O166    O    0.87057   0.64866   0.20248   1.000
    O167    O    0.92123   0.68437   0.21747   1.000
    O168    O    0.42683   0.35088   0.20245   1.000
    O169    O    0.36059   0.31565   0.21793   1.000
    O170    O    0.32422   0.62922   0.22450   1.000
    O171    O    0.95109   0.37073   0.22490   1.000
    O172    O    0.48117   0.32941   0.25012   1.000
    O173    O    0.76884   0.66968   0.25059   1.000
    O174    O    0.96071   0.71838   0.23418   1.000
    O175    O    0.30348   0.28207   0.23508   1.000
    O176    O    0.90181   0.32967   0.23822   1.000
    O177    O    0.84816   0.28148   0.25922   1.000
    O178    O    0.36014   0.67020   0.23803   1.000
    O179    O    0.39278   0.71828   0.25929   1.000
    O180    O    0.25852   0.68615   0.27255   1.000
    O181    O    0.96860   0.31389   0.27310   1.000
    O182    O    0.87045   0.74076   0.28086   1.000
    O183    O    0.34814   0.25930   0.28137   1.000
    O184    O    0.59439   0.32572   0.28688   1.000
    O185    O    0.61917   0.67266   0.28802   1.000
    O186    O    0.80349   0.23520   0.28199   1.000
    O187    O    0.41470   0.76444   0.28228   1.000
    O188    O    0.86059   0.21804   0.31555   1.000
    O189    O    0.32402   0.78180   0.31551   1.000
    O190    O    0.53380   0.30595   0.29925   1.000
    O191    O    0.46857   0.27318   0.31379   1.000
    O192    O    0.66740   0.69261   0.30017   1.000
    O193    O    0.71798   0.72593   0.31421   1.000
    O194    O    0.16057   0.70086   0.30499   1.000
    O195    O    0.18974   0.74992   0.32862   1.000
    O196    O    0.03382   0.29935   0.30588   1.000
    O197    O    0.98119   0.25021   0.32933   1.000
    O198    O    0.08027   0.71334   0.32457   1.000
    O199    O    0.09443   0.28696   0.32565   1.000
    O200    O    0.76891   0.76130   0.32950   1.000
    O201    O    0.81801   0.79988   0.34629   1.000
    O202    O    0.40178   0.23830   0.32956   1.000
    O203    O    0.33542   0.20013   0.34678   1.000
    O204    O    0.45104   0.22499   0.37064   1.000
    O205    O    0.67888   0.77418   0.37100   1.000
    O206    O    0.22260   0.79749   0.35032   1.000
    O207    O    0.25376   0.84699   0.37487   1.000
    O208    O    0.92684   0.20255   0.35077   1.000
    O209    O    0.87128   0.15298   0.37500   1.000
    O210    O    0.13404   0.80755   0.37870   1.000
    O211    O    0.98342   0.19269   0.37956   1.000
    O212    O    0.86007   0.82957   0.37824   1.000
    O213    O    0.76692   0.86811   0.39516   1.000
    O214    O    0.26128   0.17063   0.37897   1.000
    O215    O    0.33765   0.13194   0.39572   1.000
    O216    O    0.82837   0.09806   0.39405   1.000
    O217    O    0.78201   0.02783   0.44199   1.000
    O218    O    0.27739   0.90207   0.39402   1.000
    O219    O    0.27553   0.97246   0.44207   1.000
    O220    O    0.19072   0.90185   0.43855   1.000
    O221    O    0.87059   0.09805   0.43870   1.000
    O222    O    0.74014   0.93819   0.45793   1.000
    O223    O    0.30151   0.06197   0.45827   1.000
    O224    O    0.48848   0.95837   0.47783   1.000
    O225    O    0.53353   0.04081   0.47784   1.000
    O226    O    0.05324   0.95866   0.52137   1.000
    O227    O    0.92542   0.04084   0.52148   1.000
    O228    O    0.82132   0.93817   0.54143   1.000
    O229    O    0.68963   0.02751   0.55772   1.000
    O230    O    0.13658   0.06194   0.54152   1.000
    O231    O    0.25215   0.97267   0.55777   1.000
    O232    O    0.40795   0.90160   0.56090   1.000
    O233    O    0.53089   0.09786   0.56089   1.000
    O234    O    0.86478   0.86799   0.60399   1.000
    O235    O    0.03055   0.13200   0.60387   1.000
    O236    O    0.32066   0.19316   0.61935   1.000
    O237    O    0.57305   0.09755   0.60572   1.000
    O238    O    0.47543   0.15264   0.62465   1.000
    O239    O    0.32086   0.90228   0.60570   1.000
    O240    O    0.39941   0.84703   0.62480   1.000
    O241    O    0.55876   0.80708   0.62064   1.000
    O242    O    0.04606   0.77507   0.62885   1.000
    O243    O    0.82425   0.22458   0.62911   1.000
    O244    O    0.06824   0.17096   0.62036   1.000
    O245    O    0.81039   0.82920   0.62076   1.000
    O246    O    0.96466   0.20022   0.65275   1.000
    O247    O    0.88180   0.79986   0.65294   1.000
    O248    O    0.37055   0.20255   0.64857   1.000
    O249    O    0.26883   0.25066   0.66958   1.000
    O250    O    0.47999   0.79736   0.64926   1.000
    O251    O    0.56036   0.74957   0.67085   1.000
    O252    O    0.42123   0.21753   0.68431   1.000
    O253    O    0.39394   0.78205   0.68438   1.000
    O254    O    0.11916   0.28810   0.67259   1.000
    O255    O    0.70643   0.71270   0.67471   1.000
    O256    O    0.96909   0.76181   0.67010   1.000
    O257    O    0.05502   0.72708   0.68581   1.000
    O258    O    0.86019   0.23811   0.67008   1.000
    O259    O    0.75857   0.27264   0.68603   1.000
    O260    O    0.89282   0.25936   0.71820   1.000
    O261    O    0.88836   0.74081   0.71848   1.000
    O262    O    0.13845   0.69450   0.70032   1.000
    O263    O    0.20642   0.67478   0.71264   1.000
    O264    O    0.66062   0.30509   0.70078   1.000
    O265    O    0.58031   0.32464   0.71328   1.000
    O266    O    0.16739   0.30024   0.69254   1.000
    O267    O    0.63845   0.70039   0.69445   1.000
    O268    O    0.21797   0.31429   0.72586   1.000
    O269    O    0.55502   0.68588   0.72700   1.000
    O270    O    0.06032   0.67097   0.74953   1.000
    O271    O    0.68978   0.32871   0.74984   1.000
    O272    O    0.32031   0.76508   0.71794   1.000
    O273    O    0.38838   0.71860   0.74071   1.000
    O274    O    0.46111   0.23426   0.71831   1.000
    O275    O    0.37044   0.28092   0.74069   1.000
    O276    O    0.91474   0.28235   0.76427   1.000
    O277    O    0.82406   0.31558   0.78173   1.000
    O278    O    0.82027   0.71805   0.76499   1.000
    O279    O    0.89388   0.68454   0.78199   1.000
    O280    O    0.26891   0.32956   0.76124   1.000
    O281    O    0.17887   0.37108   0.77411   1.000
    O282    O    0.46910   0.67022   0.76174   1.000
    O283    O    0.54604   0.62893   0.77501   1.000
    O284    O    0.31801   0.34635   0.79981   1.000
    O285    O    0.38178   0.65310   0.79977   1.000
    O286    O    0.97992   0.64943   0.79733   1.000
    O287    O    0.05869   0.62079   0.80707   1.000
    O288    O    0.72264   0.35040   0.79742   1.000
    O289    O    0.63408   0.37878   0.80747   1.000
    O290    O    0.75379   0.37495   0.84691   1.000
    O291    O    0.89932   0.62499   0.84702   1.000
    O292    O    0.31031   0.62094   0.82915   1.000
    O293    O    0.36009   0.37826   0.82952   1.000
    O294    O    0.36478   0.60409   0.86789   1.000
    O295    O    0.26690   0.39528   0.86800   1.000
    O296    O    0.69072   0.43864   0.90176   1.000
    O297    O    0.77740   0.39414   0.90198   1.000
    O298    O    0.90782   0.56109   0.90160   1.000
    O299    O    0.82074   0.60595   0.90230   1.000
    O300    O    0.32130   0.54154   0.93807   1.000
    O301    O    0.24009   0.45810   0.93807   1.000
    O302    O    0.98841   0.47799   0.95832   1.000
    O303    O    0.55324   0.52146   0.95856   1.000
    O304    O    0.45076   0.04835   0.42313   1.000
    O305    O    0.92250   0.95120   0.57627   1.000
    O306    O    0.12618   0.42303   0.95107   1.000
    O307    O    0.50094   0.57639   0.04827   1.000
    O308    O    0.42253   0.57636   0.95109   1.000
    O309    O    0.95075   0.42325   0.04827   1.000
    O310    O    0.00095   0.04835   0.57628   1.000
    O311    O    0.62619   0.95119   0.42287   1.000
loop_
    _geom_bond_atom_site_label_1
    _geom_bond_atom_site_label_2
    _geom_bond_distance
    _geom_bond_site_symmetry_2
    _ccdc_geom_bond_type
    C7     O144      1.17229      .   S
    C119   O144      1.17229      .   S
    C7     O145      1.17221      .   S
    C129   O145      1.17221      .   S
    C7     O146      1.14878  1_554   S
    C136   O146      1.14878      .   S
    C7     O147      1.14812  1_554   S
    C111   O147      1.14812      .   S
    C141   O148      0.63392      .   S
    C97    O148      0.63392      .   S
    C141   O149      1.14825      .   S
    C6     O149      1.14825  1_556   S
    C142   O150      0.64304      .   S
    C97    O150      0.64304      .   S
    C142   O151      1.08826      .   S
    C2     O151      1.08826  1_556   S
    C106   O152      0.63389      .   S
    C41    O152      0.63389      .   S
    C106   O153      1.14817      .   S
    C6     O153      1.14817  1_556   S
    C107   O154      0.64285      .   S
    C41    O154      0.64285      .   S
    C107   O155      1.08858      .   S
    C3     O155      1.08858  1_556   S
    C119   O156      0.65333      .   S
    C64    O156      0.65333      .   S
    C129   O157      0.65314      .   S
    C80    O157      0.65314      .   S
    C97    O158      0.74686  1_455   S
    C102   O158      0.74686      .   S
    C41    O159      0.74684      .   S
    C46    O159      0.74684      .   S
    C80    O160      0.62886      .   S
    C130   O160      0.62886      .   S
    C80    O161      0.74557      .   S
    C82    O161      0.74557      .   S
    C64    O162      0.62900      .   S
    C120   O162      0.62900      .   S
    C64    O163      0.74531      .   S
    C66    O163      0.74531      .   S
    C10    O164      0.54434      .   S
    C45    O164      0.54434      .   S
    C38    O165      0.54435      .   S
    C101   O165      0.54435      .   S
    C102   O166      0.70045      .   S
    C101   O166      0.70045      .   S
    C102   O167      0.69966      .   S
    C103   O167      0.69966      .   S
    C46    O168      0.70047      .   S
    C45    O168      0.70047      .   S
    C46    O169      0.69965      .   S
    C47    O169      0.69965      .   S
    C21    O170      0.54531      .   S
    C67    O170      0.54531      .   S
    C29    O171      0.54529      .   S
    C83    O171      0.54529      .   S
    C45    O172      0.70110      .   S
    C44    O172      0.70110      .   S
    C101   O173      0.70112      .   S
    C100   O173      0.70112      .   S
    C39    O174      0.53761  1_455   S
    C103   O174      0.53761      .   S
    C11    O175      0.54332      .   S
    C47    O175      0.54332      .   S
    C82    O176      0.70168      .   S
    C83    O176      0.70168      .   S
    C82    O177      0.70034      .   S
    C87    O177      0.70034      .   S
    C66    O178      0.70166      .   S
    C67    O178      0.70166      .   S
    C66    O179      0.70046      .   S
    C71    O179      0.70046      .   S
    C67    O180      0.70128      .   S
    C68    O180      0.70128      .   S
    C83    O181      0.70132      .   S
    C84    O181      0.70132      .   S
    C103   O182      0.70033      .   S
    C98    O182      0.70033      .   S
    C47    O183      0.70034      .   S
    C42    O183      0.70034      .   S
    C8     O184      0.49960      .   S
    C108   O184      0.49960      .   S
    C36    O185      0.49955      .   S
    C143   O185      0.49955      .   S
    C31    O186      0.54329      .   S
    C87    O186      0.54329      .   S
    C23    O187      0.54334      .   S
    C71    O187      0.54334      .   S
    C87    O188      0.69929      .   S
    C86    O188      0.69929      .   S
    C71    O189      0.69969      .   S
    C70    O189      0.69969      .   S
    C44    O190      0.67575      .   S
    C108   O190      0.67575      .   S
    C44    O191      0.70133      .   S
    C43    O191      0.70133      .   S
    C100   O192      0.67580      .   S
    C143   O192      0.67580      .   S
    C100   O193      0.70139      .   S
    C99    O193      0.70139      .   S
    C68    O194      0.67572      .   S
    C123   O194      0.67572      .   S
    C68    O195      0.70112      .   S
    C69    O195      0.70112      .   S
    C84    O196      0.67582  1_655   S
    C133   O196      0.67582      .   S
    C84    O197      0.70115      .   S
    C85    O197      0.70115      .   S
    C123   O198      0.49961      .   S
    C20    O198      0.49961      .   S
    C133   O199      0.49965      .   S
    C28    O199      0.49965      .   S
    C98    O200      0.70171      .   S
    C99    O200      0.70171      .   S
    C98    O201      0.74527      .   S
    C96    O201      0.74527      .   S
    C42    O202      0.70168      .   S
    C43    O202      0.70168      .   S
    C42    O203      0.74527      .   S
    C40    O203      0.74527      .   S
    C43    O204      0.54526      .   S
    C9     O204      0.54526      .   S
    C99    O205      0.54529      .   S
    C37    O205      0.54529      .   S
    C70    O206      0.70048      .   S
    C69    O206      0.70048      .   S
    C70    O207      0.74688      .   S
    C65    O207      0.74688      .   S
    C86    O208      0.70072      .   S
    C85    O208      0.70072      .   S
    C86    O209      0.74679      .   S
    C81    O209      0.74679      .   S
    C69    O210      0.54432      .   S
    C22    O210      0.54432      .   S
    C85    O211      0.51917      .   S
    C30    O211      0.51917  1_455   S
    C96    O212      0.62889      .   S
    C140   O212      0.62889      .   S
    C96    O213      0.65340      .   S
    C139   O213      0.65340      .   S
    C40    O214      0.62902      .   S
    C105   O214      0.62902      .   S
    C40    O215      0.65331      .   S
    C104   O215      0.65331      .   S
    C131   O216      0.63362      .   S
    C81    O216      0.63362      .   S
    C131   O217      1.14836      .   S
    C5     O217      1.14836  1_565   S
    C121   O218      0.63388      .   S
    C65    O218      0.63388      .   S
    C121   O219      1.14883      .   S
    C4     O219      1.14883  1_545   S
    C65    O220      0.64286      .   S
    C122   O220      0.64286      .   S
    C81    O221      0.64332      .   S
    C132   O221      0.64332      .   S
    C139   O222      1.17103      .   S
    C5     O222      1.17103      .   S
    C104   O223      1.17217      .   S
    C4     O223      1.17217      .   S
    C0     O224      1.08832      .   S
    C127   O224      1.08832      .   S
    C0     O225      1.08850  1_565   S
    C117   O225      1.08850      .   S
    C122   O226      1.08866      .   S
    C1     O226      1.08866  1_655   S
    C132   O227      1.08864      .   S
    C1     O227      1.08864  1_565   S
    C5     O228      1.17091      .   S
    C109   O228      1.17091      .   S
    C5     O229      1.14798  1_565   S
    C116   O229      1.14798      .   S
    C4     O230      1.17223      .   S
    C134   O230      1.17223      .   S
    C4     O231      1.14761  1_545   S
    C126   O231      1.14761      .   S
    C127   O232      0.64271      .   S
    C73    O232      0.64271      .   S
    C117   O233      0.64276      .   S
    C57    O233      0.64276      .   S
    C109   O234      0.65347      .   S
    C48    O234      0.65347      .   S
    C134   O235      0.65348      .   S
    C88    O235      0.65348      .   S
    C18    O236      0.54390      .   S
    C61    O236      0.54390      .   S
    C57    O237      0.63392      .   S
    C116   O237      0.63392      .   S
    C57    O238      0.74680      .   S
    C62    O238      0.74680      .   S
    C73    O239      0.63408      .   S
    C126   O239      0.63408      .   S
    C73    O240      0.74663      .   S
    C78    O240      0.74663      .   S
    C26    O241      0.54430      .   S
    C77    O241      0.54430      .   S
    C13    O242      0.54529      .   S
    C51    O242      0.54529      .   S
    C33    O243      0.54470      .   S
    C91    O243      0.54470      .   S
    C135   O244      0.62898      .   S
    C88    O244      0.62898      .   S
    C110   O245      0.62889      .   S
    C48    O245      0.62889      .   S
    C88    O246      0.74537  1_455   S
    C90    O246      0.74537      .   S
    C48    O247      0.74490      .   S
    C50    O247      0.74490      .   S
    C61    O248      0.70072      .   S
    C62    O248      0.70072      .   S
    C61    O249      0.70125      .   S
    C60    O249      0.70125      .   S
    C77    O250      0.70054      .   S
    C78    O250      0.70054      .   S
    C77    O251      0.70108      .   S
    C76    O251      0.70108      .   S
    C62    O252      0.69963      .   S
    C63    O252      0.69963      .   S
    C78    O253      0.69977      .   S
    C79    O253      0.69977      .   S
    C16    O254      0.49953      .   S
    C118   O254      0.49953      .   S
    C24    O255      0.49961      .   S
    C128   O255      0.49961      .   S
    C51    O256      0.70192  1_455   S
    C50    O256      0.70192      .   S
    C51    O257      0.70125      .   S
    C52    O257      0.70125      .   S
    C91    O258      0.70208      .   S
    C90    O258      0.70208      .   S
    C91    O259      0.70142      .   S
    C92    O259      0.70142      .   S
    C90    O260      0.70047      .   S
    C95    O260      0.70047      .   S
    C50    O261      0.70068      .   S
    C55    O261      0.70068      .   S
    C113   O262      0.67569      .   S
    C52    O262      0.67569      .   S
    C113   O263      0.49961      .   S
    C12    O263      0.49961      .   S
    C138   O264      0.67568      .   S
    C92    O264      0.67568      .   S
    C138   O265      0.49961      .   S
    C32    O265      0.49961      .   S
    C118   O266      0.67579      .   S
    C60    O266      0.67579      .   S
    C128   O267      0.67571      .   S
    C76    O267      0.67571      .   S
    C60    O268      0.70137      .   S
    C59    O268      0.70137      .   S
    C76    O269      0.70129      .   S
    C75    O269      0.70129      .   S
    C52    O270      0.70107      .   S
    C53    O270      0.70107      .   S
    C92    O271      0.70113      .   S
    C93    O271      0.70113      .   S
    C79    O272      0.54331      .   S
    C27    O272      0.54331      .   S
    C79    O273      0.70039      .   S
    C74    O273      0.70039      .   S
    C63    O274      0.54330      .   S
    C19    O274      0.54330      .   S
    C63    O275      0.70031      .   S
    C58    O275      0.70031      .   S
    C95    O276      0.54235      .   S
    C35    O276      0.54235      .   S
    C95    O277      0.69969      .   S
    C94    O277      0.69969      .   S
    C55    O278      0.54331      .   S
    C15    O278      0.54331      .   S
    C55    O279      0.69970      .   S
    C54    O279      0.69970      .   S
    C59    O280      0.70170      .   S
    C58    O280      0.70170      .   S
    C59    O281      0.54528      .   S
    C17    O281      0.54528      .   S
    C75    O282      0.70167      .   S
    C74    O282      0.70167      .   S
    C75    O283      0.54526      .   S
    C25    O283      0.54526      .   S
    C58    O284      0.74532      .   S
    C56    O284      0.74532      .   S
    C74    O285      0.74523      .   S
    C72    O285      0.74523      .   S
    C53    O286      0.70051  1_455   S
    C54    O286      0.70051      .   S
    C53    O287      0.54434      .   S
    C14    O287      0.54434      .   S
    C93    O288      0.70045      .   S
    C94    O288      0.70045      .   S
    C93    O289      0.54430      .   S
    C34    O289      0.54430      .   S
    C94    O290      0.74681      .   S
    C89    O290      0.74681      .   S
    C54    O291      0.74689      .   S
    C49    O291      0.74689      .   S
    C125   O292      0.62874      .   S
    C72    O292      0.62874      .   S
    C115   O293      0.62885      .   S
    C56    O293      0.62885      .   S
    C72    O294      0.65371      .   S
    C124   O294      0.65371      .   S
    C56    O295      0.65342      .   S
    C114   O295      0.65342      .   S
    C89    O296      0.64287      .   S
    C137   O296      0.64287      .   S
    C89    O297      0.63394      .   S
    C136   O297      0.63394      .   S
    C49    O298      0.64267      .   S
    C112   O298      0.64267      .   S
    C49    O299      0.63396      .   S
    C111   O299      0.63396      .   S
    C124   O300      1.17084      .   S
    C6     O300      1.17084      .   S
    C114   O301      1.17099      .   S
    C6     O301      1.17099      .   S
    C112   O302      1.08842      .   S
    C2     O302      1.08842  1_455   S
    C137   O303      1.08859      .   S
    C3     O303      1.08859      .   S
    C104   O304      1.14208      .   S
    C0     O304      1.14208  1_565   S
    C109   O305      1.14290      .   S
    C1     O305      1.14290      .   S
    C114   O306      1.14234      .   S
    C2     O306      1.14234      .   S
    C119   O307      1.14247      .   S
    C3     O307      1.14247  1_556   S
    C124   O308      1.14297      .   S
    C3     O308      1.14297      .   S
    C129   O309      1.14219      .   S
    C2     O309      1.14219  1_456   S
    C134   O310      1.14257      .   S
    C1     O310      1.14257  1_665   S
    C139   O311      1.14232      .   S
    C0     O311      1.14232      .   S
