# CIF file generated by openbabel 2.4.90, see http://openbabel.sf.net
data_I
_chemical_name_common ''
_cell_length_a 15.503
_cell_length_b 15.666
_cell_length_c 18.559
_cell_angle_alpha 90.008
_cell_angle_beta 90
_cell_angle_gamma 89.962
_space_group_name_H-M_alt 'P 1'
_space_group_name_Hall 'P 1'
loop_
    _symmetry_equiv_pos_as_xyz
    x,y,z
loop_
    _atom_site_label
    _atom_site_type_symbol
    _atom_site_fract_x
    _atom_site_fract_y
    _atom_site_fract_z
    _atom_site_occupancy
    N0      N    0.33342   0.88402   0.07675   1.000
    N1      N    0.90730   0.17235   0.12300   1.000
    N2      N    0.36582   0.01434   0.80221   1.000
    N3      N    0.83345   0.88400   0.42325   1.000
    N4      N    0.09286   0.67255   0.37681   1.000
    N5      N    0.83367   0.61612   0.92328   1.000
    N6      N    0.40728   0.17238   0.37685   1.000
    N7      N    0.38904   0.69458   0.83714   1.000
    N8      N    0.13432   0.51440   0.80216   1.000
    N9      N    0.86582   0.01438   0.69772   1.000
    N10     N    0.63427   0.51433   0.69784   1.000
    N11     N    0.61098   0.19441   0.66283   1.000
    N12     N    0.59277   0.67251   0.12305   1.000
    N13     N    0.61095   0.30544   0.16282   1.000
    N14     N    0.66657   0.11601   0.92313   1.000
    N15     N    0.59271   0.82764   0.62310   1.000
    N16     N    0.11097   0.30544   0.33708   1.000
    N17     N    0.90713   0.32748   0.62305   1.000
    N18     N    0.16632   0.38391   0.07667   1.000
    N19     N    0.86567   0.48562   0.19779   1.000
    N20     N    0.16655   0.11603   0.57669   1.000
    N21     N    0.88893   0.80557   0.16290   1.000
    N22     N    0.33370   0.61618   0.57667   1.000
    N23     N    0.63417   0.98568   0.19775   1.000
    N24     N    0.38901   0.80561   0.33712   1.000
    N25     N    0.88902   0.69458   0.66285   1.000
    N26     N    0.66629   0.38384   0.42329   1.000
    N27     N    0.40722   0.32751   0.87689   1.000
    N28     N    0.36572   0.48570   0.30212   1.000
    N29     N    0.13418   0.98565   0.30223   1.000
    N30     N    0.11107   0.19446   0.83707   1.000
    N31     N    0.09270   0.82767   0.87688   1.000
    Zr32    Zr   0.29656   0.63760   0.40593   1.000
    O33     O    0.30930   0.63064   0.46168   1.000
    O34     O    0.32777   0.69225   0.38364   1.000
    O35     O    0.31912   0.58717   0.37265   1.000
    O36     O    0.23002   0.64925   0.39617   1.000
    Zr37    Zr   0.01084   0.16316   0.68685   1.000
    O38     O    0.96392   0.11394   0.69013   1.000
    O39     O    0.04285   0.17391   0.73626   1.000
    O40     O    0.06135   0.14800   0.65027   1.000
    O41     O    0.97657   0.21690   0.66627   1.000
    Zr42    Zr   0.70355   0.13744   0.09401   1.000
    O43     O    0.77011   0.14907   0.10375   1.000
    O44     O    0.69087   0.13047   0.03822   1.000
    O45     O    0.67230   0.19209   0.11630   1.000
    O46     O    0.68093   0.08704   0.12726   1.000
    Zr47    Zr   0.20356   0.13746   0.40595   1.000
    O48     O    0.18094   0.08705   0.37271   1.000
    O49     O    0.19086   0.13049   0.46170   1.000
    O50     O    0.27010   0.14910   0.39618   1.000
    O51     O    0.17231   0.19210   0.38364   1.000
    Zr52    Zr   0.51084   0.16315   0.81310   1.000
    O53     O    0.46391   0.11392   0.80981   1.000
    O54     O    0.56136   0.14798   0.84965   1.000
    O55     O    0.54282   0.17389   0.76367   1.000
    O56     O    0.47660   0.21690   0.83369   1.000
    Zr57    Zr   0.79643   0.86257   0.59402   1.000
    O58     O    0.80913   0.86953   0.53826   1.000
    O59     O    0.82768   0.80792   0.61632   1.000
    O60     O    0.81905   0.91298   0.62725   1.000
    O61     O    0.72989   0.85093   0.60377   1.000
    Zr62    Zr   0.29643   0.86259   0.90596   1.000
    O63     O    0.22988   0.85095   0.89620   1.000
    O64     O    0.31905   0.91298   0.87271   1.000
    O65     O    0.30912   0.86955   0.96172   1.000
    O66     O    0.32768   0.80794   0.88367   1.000
    Zr67    Zr   0.98920   0.66328   0.81310   1.000
    O68     O    0.95721   0.67404   0.76368   1.000
    O69     O    0.02341   0.71705   0.83367   1.000
    O70     O    0.03617   0.61404   0.80979   1.000
    O71     O    0.93875   0.64811   0.84968   1.000
    Zr72    Zr   0.98914   0.83686   0.31312   1.000
    O73     O    0.93864   0.85203   0.34970   1.000
    O74     O    0.95714   0.82611   0.26371   1.000
    O75     O    0.02342   0.78313   0.33367   1.000
    O76     O    0.03607   0.88608   0.30983   1.000
    Zr77    Zr   0.79651   0.63756   0.09404   1.000
    O78     O    0.72996   0.64921   0.10377   1.000
    O79     O    0.82770   0.69221   0.11635   1.000
    O80     O    0.81906   0.58712   0.12729   1.000
    O81     O    0.80926   0.63059   0.03828   1.000
    Zr82    Zr   0.51076   0.33675   0.31307   1.000
    O83     O    0.56121   0.35190   0.34967   1.000
    O84     O    0.46383   0.38601   0.30976   1.000
    O85     O    0.54275   0.32599   0.26365   1.000
    O86     O    0.47656   0.28299   0.33364   1.000
    Zr87    Zr   0.48914   0.83688   0.18687   1.000
    O88     O    0.45717   0.82614   0.23630   1.000
    O89     O    0.43863   0.85205   0.15030   1.000
    O90     O    0.52339   0.78313   0.16628   1.000
    O91     O    0.53608   0.88610   0.19015   1.000
    Zr92    Zr   0.48922   0.66328   0.68600   1.000
    O93     O    0.43878   0.64813   0.64973   1.000
    O94     O    0.53616   0.61401   0.68965   1.000
    O95     O    0.45723   0.67403   0.73576   1.000
    O96     O    0.52343   0.71703   0.66576   1.000
    Zr97    Zr   0.70343   0.36243   0.59404   1.000
    O98     O    0.68087   0.41286   0.62731   1.000
    O99     O    0.67222   0.30777   0.61632   1.000
    O100    O    0.76997   0.35077   0.60378   1.000
    O101    O    0.69069   0.36939   0.53829   1.000
    Zr102   Zr   0.01078   0.33674   0.18687   1.000
    O103    O    0.04278   0.32599   0.23628   1.000
    O104    O    0.96382   0.38599   0.19017   1.000
    O105    O    0.97658   0.28298   0.16627   1.000
    O106    O    0.06124   0.35191   0.15027   1.000
    Zr107   Zr   0.20348   0.36247   0.90593   1.000
    O108    O    0.17229   0.30781   0.88362   1.000
    O109    O    0.27003   0.35082   0.89618   1.000
    O110    O    0.18093   0.41291   0.87267   1.000
    O111    O    0.19073   0.36943   0.96168   1.000
loop_
    _geom_bond_atom_site_label_1
    _geom_bond_atom_site_label_2
    _geom_bond_distance
    _geom_bond_site_symmetry_2
    _ccdc_geom_bond_type
    Zr32   O33       1.05893      .   S
    N22    O33       2.17920      .   S
    Zr32   O34       1.06721      .   S
    N24    O34       2.19168      .   S
    Zr32   O35       1.06173      .   S
    N28    O35       2.18185      .   S
    Zr32   O36       1.06303      .   S
    N4     O36       2.18701      .   S
    Zr37   O38       1.06225  1_455   S
    N9     O38       2.18379      .   S
    Zr37   O39       1.05618      .   S
    N30    O39       2.17312      .   S
    Zr37   O40       1.06310      .   S
    N20    O40       2.18492      .   S
    Zr37   O41       1.06598  1_455   S
    N17    O41       2.19113      .   S
    Zr42   O43       1.06335      .   S
    N1     O43       2.18745      .   S
    Zr42   O44       1.05954      .   S
    N14    O44       2.18076  1_556   S
    Zr42   O45       1.06687      .   S
    N13    O45       2.19109      .   S
    Zr42   O46       1.06183      .   S
    N23    O46       2.18190  1_565   S
    Zr47   O48       1.06179      .   S
    N29    O48       2.18189  1_565   S
    Zr47   O49       1.05890      .   S
    N20    O49       2.17901      .   S
    Zr47   O50       1.06337      .   S
    N6     O50       2.18755      .   S
    Zr47   O51       1.06698      .   S
    N16    O51       2.19136      .   S
    Zr52   O53       1.06231      .   S
    N2     O53       2.18390      .   S
    Zr52   O54       1.06283      .   S
    N14    O54       2.18408      .   S
    Zr52   O55       1.05627      .   S
    N11    O55       2.17329      .   S
    Zr52   O56       1.06591      .   S
    N27    O56       2.19094      .   S
    Zr57   O58       1.05901      .   S
    N3     O58       2.17934      .   S
    Zr57   O59       1.06691      .   S
    N25    O59       2.19115      .   S
    Zr57   O60       1.06176      .   S
    N9     O60       2.18178  1_545   S
    Zr57   O61       1.06331      .   S
    N15    O61       2.18749      .   S
    Zr62   O63       1.06340      .   S
    N31    O63       2.18762      .   S
    Zr62   O64       1.06188      .   S
    N2     O64       2.18201  1_545   S
    Zr62   O65       1.05908      .   S
    N0     O65       2.17947  1_554   S
    Zr62   O66       1.06692      .   S
    N7     O66       2.19117      .   S
    Zr67   O68       1.05620      .   S
    N25    O68       2.17316      .   S
    Zr67   O69       1.06618  1_655   S
    N31    O69       2.19150      .   S
    Zr67   O70       1.06222  1_655   S
    N8     O70       2.18381      .   S
    Zr67   O71       1.06275      .   S
    N5     O71       2.18450      .   S
    Zr72   O73       1.06300      .   S
    N3     O73       2.18470      .   S
    Zr72   O74       1.05622      .   S
    N21    O74       2.17317      .   S
    Zr72   O75       1.06581  1_655   S
    N4     O75       2.19062      .   S
    Zr72   O76       1.06226  1_655   S
    N29    O76       2.18381      .   S
    Zr77   O78       1.06311      .   S
    N12    O78       2.18706      .   S
    Zr77   O79       1.06711      .   S
    N21    O79       2.19151      .   S
    Zr77   O80       1.06177      .   S
    N19    O80       2.18192      .   S
    Zr77   O81       1.05908      .   S
    N5     O81       2.17949  1_556   S
    Zr82   O83       1.06287      .   S
    N26    O83       2.18444      .   S
    Zr82   O84       1.06219      .   S
    N28    O84       2.18376      .   S
    Zr82   O85       1.05619      .   S
    N13    O85       2.17313      .   S
    Zr82   O86       1.06617      .   S
    N6     O86       2.19139      .   S
    Zr87   O88       1.05620      .   S
    N24    O88       2.17308      .   S
    Zr87   O89       1.06310      .   S
    N0     O89       2.18489      .   S
    Zr87   O90       1.06596      .   S
    N12    O90       2.19111      .   S
    Zr87   O91       1.06230      .   S
    N23    O91       2.18388      .   S
    Zr92   O93       1.05891      .   S
    N22    O93       2.17799      .   S
    Zr92   O94       1.06258      .   S
    N10    O94       2.18448      .   S
    Zr92   O95       1.06159      .   S
    N7     O95       2.18199      .   S
    Zr92   O96       1.06398      .   S
    N15    O96       2.18769      .   S
    Zr97   O98       1.06168      .   S
    N10    O98       2.18175      .   S
    Zr97   O99       1.06717      .   S
    N11    O99       2.19160      .   S
    Zr97   O100      1.06296      .   S
    N17    O100      2.18679      .   S
    Zr97   O101      1.05901      .   S
    N26    O101      2.17933      .   S
    Zr102  O103      1.05601      .   S
    N16    O103      2.17265      .   S
    Zr102  O104      1.06219  1_455   S
    N19    O104      2.18376      .   S
    Zr102  O105      1.06637  1_455   S
    N1     O105      2.19194      .   S
    Zr102  O106      1.06292      .   S
    N18    O106      2.18455      .   S
    Zr107  O108      1.06713      .   S
    N30    O108      2.19154      .   S
    Zr107  O109      1.06317      .   S
    N27    O109      2.18712      .   S
    Zr107  O110      1.06181      .   S
    N8     O110      2.18205      .   S
    Zr107  O111      1.05900      .   S
    N18    O111      2.17926  1_554   S
