# CIF file generated by openbabel 2.4.90, see http://openbabel.sf.net
data_I
_chemical_name_common ''
_cell_length_a 6.8215
_cell_length_b 9.31303
_cell_length_c 10.182
_cell_angle_alpha 67.1916
_cell_angle_beta 81.405
_cell_angle_gamma 73.3754
_space_group_name_H-M_alt 'P 1'
_space_group_name_Hall 'P 1'
loop_
    _symmetry_equiv_pos_as_xyz
    x,y,z
loop_
    _atom_site_label
    _atom_site_type_symbol
    _atom_site_fract_x
    _atom_site_fract_y
    _atom_site_fract_z
    _atom_site_occupancy
    Zr0     Zr   0.24475   0.45511   0.11792   1.000
    Zr1     Zr   0.75536   0.54482   0.88208   1.000
    N2      N    0.24741   0.78894   0.50000   1.000
    O3      O    0.40932   0.68059   0.68951   1.000
    O4      O    0.09333   0.65724   0.68845   1.000
    N5      N    0.75271   0.21099   0.50000   1.000
    O6      O    0.59080   0.31934   0.31049   1.000
    O7      O    0.90679   0.34270   0.31155   1.000
    O8      O    0.75145   0.35344   0.25206   1.000
    O9      O    0.75658   0.38074   0.64850   1.000
    O10     O    0.24867   0.64649   0.74794   1.000
    O11     O    0.24569   0.60170   0.34531   1.000
loop_
    _geom_bond_atom_site_label_1
    _geom_bond_atom_site_label_2
    _geom_bond_distance
    _geom_bond_site_symmetry_2
    _ccdc_geom_bond_type
    N2     O3        2.10979      .   S
    Zr1    O3        2.96122      .   S
    N2     O4        2.14508      .   S
    Zr1    O4        2.95303  1_655   S
    N5     O6        2.10978      .   S
    Zr0    O6        2.96125      .   S
    N5     O7        2.14507      .   S
    Zr0    O7        2.95301  1_455   S
    N5     O8        2.35304      .   S
    Zr1    O8        3.48715  1_556   S
    Zr1    O9        3.28575      .   S
    N5     O9        2.58361      .   S
    Zr0    O10       3.48715  1_554   S
    N2     O10       2.35305      .   S
    N2     O11       2.76912      .   S
    Zr0    O11       3.11194      .   S
