# CIF file generated by openbabel 2.4.90, see http://openbabel.sf.net
data_I
_chemical_name_common 'VESTA_phase_1'
_cell_length_a 16.563
_cell_length_b 16.569
_cell_length_c 16.571
_cell_angle_alpha 105.564
_cell_angle_beta 105.413
_cell_angle_gamma 105.367
_space_group_name_H-M_alt 'P 1'
_space_group_name_Hall 'P 1'
loop_
    _symmetry_equiv_pos_as_xyz
    x,y,z
loop_
    _atom_site_label
    _atom_site_type_symbol
    _atom_site_fract_x
    _atom_site_fract_y
    _atom_site_fract_z
    _atom_site_occupancy
    Cu0     Cu   0.56365   0.25050   0.93818   1.000
    Cu1     Cu   0.74939   0.43629   0.06201   1.000
    Cu2     Cu   0.93800   0.56346   0.25077   1.000
    Cu3     Cu   0.06199   0.74917   0.43644   1.000
    Cu4     Cu   0.25064   0.93789   0.56358   1.000
    Cu5     Cu   0.43628   0.06174   0.74942   1.000
    Cu6     Cu   0.43637   0.74957   0.06183   1.000
    Cu7     Cu   0.25063   0.56376   0.93801   1.000
    Cu8     Cu   0.06202   0.43659   0.74923   1.000
    Cu9     Cu   0.93802   0.25088   0.56356   1.000
    Cu10    Cu   0.74939   0.06221   0.43645   1.000
    Cu11    Cu   0.56373   0.93832   0.25059   1.000
    H12     H    0.46802   0.90932   0.74430   1.000
    H13     H    0.37025   0.86688   0.76533   1.000
    H14     H    0.62978   0.23464   0.13316   1.000
    H15     H    0.53202   0.25574   0.09064   1.000
    H16     H    0.59769   0.78791   0.85529   1.000
    H17     H    0.61300   0.90297   0.90311   1.000
    H18     H    0.59771   0.85525   0.78804   1.000
    H19     H    0.44676   0.74116   0.67371   1.000
    H20     H    0.35420   0.70780   0.70769   1.000
    H21     H    0.44665   0.67365   0.74124   1.000
    H22     H    0.39633   0.29313   0.03030   1.000
    H23     H    0.40170   0.23748   0.92560   1.000
    H24     H    0.76255   0.59809   0.07419   1.000
    H25     H    0.70691   0.60329   0.96954   1.000
    H26     H    0.29433   0.22626   0.78354   1.000
    H27     H    0.34417   0.34401   0.81281   1.000
    H28     H    0.22641   0.29451   0.78360   1.000
    H29     H    0.23379   0.23426   0.98761   1.000
    H30     H    0.22920   0.16193   0.88366   1.000
    H31     H    0.16177   0.22943   0.88358   1.000
    H32     H    0.74448   0.46818   0.90970   1.000
    H33     H    0.76549   0.37033   0.86690   1.000
    H34     H    0.13282   0.62974   0.23460   1.000
    H35     H    0.09035   0.53197   0.25550   1.000
    H36     H    0.85552   0.59776   0.78841   1.000
    H37     H    0.90319   0.61317   0.90342   1.000
    H38     H    0.78818   0.59787   0.85582   1.000
    H39     H    0.67402   0.44681   0.74159   1.000
    H40     H    0.70809   0.35421   0.70798   1.000
    H41     H    0.74164   0.44663   0.67399   1.000
    H42     H    0.03013   0.39592   0.29271   1.000
    H43     H    0.92553   0.40135   0.23732   1.000
    H44     H    0.07437   0.76270   0.59846   1.000
    H45     H    0.96982   0.70732   0.60388   1.000
    H46     H    0.78353   0.29420   0.22631   1.000
    H47     H    0.81284   0.34421   0.34413   1.000
    H48     H    0.78360   0.22636   0.29444   1.000
    H49     H    0.98739   0.23325   0.23350   1.000
    H50     H    0.88350   0.22873   0.16150   1.000
    H51     H    0.88339   0.16138   0.22888   1.000
    H52     H    0.90973   0.74455   0.46814   1.000
    H53     H    0.86718   0.76541   0.37033   1.000
    H54     H    0.23451   0.13298   0.62969   1.000
    H55     H    0.25551   0.09016   0.53185   1.000
    H56     H    0.78821   0.85596   0.59782   1.000
    H57     H    0.90321   0.90361   0.61319   1.000
    H58     H    0.85566   0.78861   0.59780   1.000
    H59     H    0.74166   0.67422   0.44674   1.000
    H60     H    0.70821   0.70809   0.35418   1.000
    H61     H    0.67404   0.74186   0.44665   1.000
    H62     H    0.29301   0.03040   0.39652   1.000
    H63     H    0.23744   0.92578   0.40168   1.000
    H64     H    0.59824   0.07441   0.76258   1.000
    H65     H    0.60372   0.96975   0.70698   1.000
    H66     H    0.22645   0.78365   0.29416   1.000
    H67     H    0.34420   0.81286   0.34399   1.000
    H68     H    0.29462   0.78361   0.22600   1.000
    H69     H    0.23387   0.98760   0.23385   1.000
    H70     H    0.16179   0.88372   0.22910   1.000
    H71     H    0.22920   0.88351   0.16169   1.000
    H72     H    0.53200   0.09073   0.25570   1.000
    H73     H    0.62977   0.13317   0.23467   1.000
    H74     H    0.37025   0.76542   0.86684   1.000
    H75     H    0.46801   0.74432   0.90936   1.000
    H76     H    0.40233   0.21215   0.14471   1.000
    H77     H    0.38703   0.09709   0.09689   1.000
    H78     H    0.40231   0.14480   0.21195   1.000
    H79     H    0.55326   0.25890   0.32629   1.000
    H80     H    0.64582   0.29225   0.29231   1.000
    H81     H    0.55337   0.32641   0.25876   1.000
    H82     H    0.60369   0.70692   0.96969   1.000
    H83     H    0.59832   0.76258   0.07441   1.000
    H84     H    0.23748   0.40197   0.92580   1.000
    H85     H    0.29310   0.39676   0.03046   1.000
    H86     H    0.70569   0.77379   0.21646   1.000
    H87     H    0.65585   0.65604   0.18719   1.000
    H88     H    0.77361   0.70554   0.21633   1.000
    H89     H    0.76624   0.76580   0.01239   1.000
    H90     H    0.77082   0.83812   0.11635   1.000
    H91     H    0.83825   0.77062   0.11642   1.000
    H92     H    0.25554   0.53187   0.09030   1.000
    H93     H    0.23452   0.62972   0.13300   1.000
    H94     H    0.86720   0.37031   0.76535   1.000
    H95     H    0.90966   0.46808   0.74444   1.000
    H96     H    0.14450   0.40229   0.21159   1.000
    H97     H    0.09683   0.38688   0.09658   1.000
    H98     H    0.21184   0.40219   0.14418   1.000
    H99     H    0.32599   0.55324   0.25841   1.000
    H100    H    0.29192   0.64584   0.29202   1.000
    H101    H    0.25839   0.55342   0.32601   1.000
    H102    H    0.96989   0.60413   0.70729   1.000
    H103    H    0.07449   0.59870   0.76268   1.000
    H104    H    0.92564   0.23735   0.40153   1.000
    H105    H    0.03020   0.29273   0.39612   1.000
    H106    H    0.21649   0.70585   0.77368   1.000
    H107    H    0.18717   0.65584   0.65586   1.000
    H108    H    0.21641   0.77368   0.70556   1.000
    H109    H    0.01263   0.76680   0.76645   1.000
    H110    H    0.11652   0.77132   0.83850   1.000
    H111    H    0.11663   0.83867   0.77112   1.000
    H112    H    0.09029   0.25551   0.53185   1.000
    H113    H    0.13283   0.23465   0.62967   1.000
    H114    H    0.76551   0.86709   0.37030   1.000
    H115    H    0.74450   0.90989   0.46814   1.000
    H116    H    0.21181   0.14410   0.40218   1.000
    H117    H    0.09681   0.09644   0.38680   1.000
    H118    H    0.14436   0.21144   0.40219   1.000
    H119    H    0.25836   0.32583   0.55325   1.000
    H120    H    0.29181   0.29197   0.64581   1.000
    H121    H    0.32598   0.25819   0.55335   1.000
    H122    H    0.70701   0.96965   0.60340   1.000
    H123    H    0.76257   0.07428   0.59832   1.000
    H124    H    0.40178   0.92564   0.23742   1.000
    H125    H    0.39630   0.03030   0.29302   1.000
    H126    H    0.77357   0.21640   0.70585   1.000
    H127    H    0.65582   0.18720   0.65602   1.000
    H128    H    0.70540   0.21644   0.77381   1.000
    H129    H    0.76614   0.01245   0.76614   1.000
    H130    H    0.83822   0.11633   0.77080   1.000
    H131    H    0.77082   0.11654   0.83831   1.000
    C132    C    0.52519   0.12222   0.02783   1.000
    C133    C    0.51252   0.03824   0.03823   1.000
    C134    C    0.47486   0.97219   0.87778   1.000
    C135    C    0.44432   0.89065   0.79510   1.000
    C136    C    0.47382   0.81445   0.81447   1.000
    C137    C    0.55571   0.20488   0.10935   1.000
    C138    C    0.57637   0.84209   0.84218   1.000
    C139    C    0.42762   0.72938   0.72940   1.000
    C140    C    0.62072   0.52618   0.01730   1.000
    C141    C    0.53728   0.53726   0.00754   1.000
    C142    C    0.47372   0.37932   0.98274   1.000
    C143    C    0.39465   0.29861   0.96484   1.000
    C144    C    0.30325   0.30338   0.91616   1.000
    C145    C    0.70147   0.60515   0.03509   1.000
    C146    C    0.29147   0.29146   0.81813   1.000
    C147    C    0.22760   0.22786   0.91815   1.000
    C148    C    0.02766   0.52508   0.12218   1.000
    C149    C    0.03816   0.51250   0.03818   1.000
    C150    C    0.87785   0.47489   0.97230   1.000
    C151    C    0.79530   0.44442   0.89085   1.000
    C152    C    0.81470   0.47391   0.81473   1.000
    C153    C    0.10910   0.55565   0.20475   1.000
    C154    C    0.84234   0.57650   0.84256   1.000
    C155    C    0.72974   0.42766   0.72970   1.000
    C156    C    0.01734   0.62080   0.52638   1.000
    C157    C    0.00756   0.53736   0.53731   1.000
    C158    C    0.98267   0.47354   0.37921   1.000
    C159    C    0.96474   0.39434   0.29836   1.000
    C160    C    0.91605   0.30299   0.30308   1.000
    C161    C    0.03523   0.70169   0.60552   1.000
    C162    C    0.81809   0.29138   0.29142   1.000
    C163    C    0.91798   0.22718   0.22730   1.000
    C164    C    0.12214   0.02763   0.52509   1.000
    C165    C    0.03815   0.03817   0.51246   1.000
    C166    C    0.97236   0.87787   0.47495   1.000
    C167    C    0.89095   0.79534   0.44442   1.000
    C168    C    0.81475   0.81488   0.47391   1.000
    C169    C    0.20469   0.10904   0.55500   1.000
    C170    C    0.84241   0.84273   0.57650   1.000
    C171    C    0.72979   0.72989   0.42763   1.000
    C172    C    0.52628   0.01726   0.62071   1.000
    C173    C    0.53728   0.00755   0.53726   1.000
    C174    C    0.37926   0.98268   0.47373   1.000
    C175    C    0.29852   0.96491   0.39469   1.000
    C176    C    0.30328   0.91617   0.30320   1.000
    C177    C    0.60535   0.03519   0.70149   1.000
    C178    C    0.29157   0.81815   0.29130   1.000
    C179    C    0.22763   0.91815   0.22758   1.000
    C180    C    0.47485   0.87783   0.97217   1.000
    C181    C    0.48750   0.96181   0.96177   1.000
    C182    C    0.52517   0.02787   0.12222   1.000
    C183    C    0.55570   0.10941   0.20487   1.000
    C184    C    0.52621   0.18561   0.18550   1.000
    C185    C    0.44431   0.79517   0.89065   1.000
    C186    C    0.42365   0.15797   0.15782   1.000
    C187    C    0.57240   0.27067   0.27060   1.000
    C188    C    0.37930   0.47387   0.98269   1.000
    C189    C    0.46274   0.46280   0.99247   1.000
    C190    C    0.52630   0.62074   0.01727   1.000
    C191    C    0.60537   0.70145   0.03517   1.000
    C192    C    0.69677   0.69667   0.08384   1.000
    C193    C    0.29856   0.39491   0.96492   1.000
    C194    C    0.70855   0.70859   0.18188   1.000
    C195    C    0.77242   0.77220   0.08185   1.000
    C196    C    0.97235   0.47497   0.87783   1.000
    C197    C    0.96185   0.48755   0.96182   1.000
    C198    C    0.12216   0.52518   0.02771   1.000
    C199    C    0.20471   0.55563   0.10915   1.000
    C200    C    0.18532   0.52614   0.18528   1.000
    C201    C    0.89092   0.44440   0.79525   1.000
    C202    C    0.15768   0.42356   0.15744   1.000
    C203    C    0.27028   0.57240   0.27031   1.000
    C204    C    0.98268   0.37925   0.47362   1.000
    C205    C    0.99246   0.46269   0.46269   1.000
    C206    C    0.01735   0.52651   0.62079   1.000
    C207    C    0.03528   0.60572   0.70160   1.000
    C208    C    0.08396   0.69706   0.69692   1.000
    C209    C    0.96479   0.29836   0.39448   1.000
    C210    C    0.18193   0.70867   0.70857   1.000
    C211    C    0.08205   0.77287   0.77266   1.000
    C212    C    0.87787   0.97242   0.47489   1.000
    C213    C    0.96186   0.96189   0.48754   1.000
    C214    C    0.02766   0.12218   0.52506   1.000
    C215    C    0.10907   0.20471   0.55557   1.000
    C216    C    0.18527   0.18517   0.52609   1.000
    C217    C    0.79533   0.89102   0.44441   1.000
    C218    C    0.15761   0.15732   0.42349   1.000
    C219    C    0.27023   0.27016   0.57236   1.000
    C220    C    0.47374   0.98281   0.37929   1.000
    C221    C    0.46273   0.99250   0.46274   1.000
    C222    C    0.62076   0.01739   0.52628   1.000
    C223    C    0.70150   0.03515   0.60531   1.000
    C224    C    0.69674   0.08388   0.69680   1.000
    C225    C    0.39466   0.96486   0.29851   1.000
    C226    C    0.70845   0.18190   0.70870   1.000
    C227    C    0.77239   0.08190   0.77242   1.000
    I228    I    0.73588   0.26401   0.99991   1.000
    I229    I    0.49989   0.23373   0.76617   1.000
    I230    I    0.99993   0.73567   0.26422   1.000
    I231    I    0.76605   0.50008   0.23408   1.000
    I232    I    0.26411   0.00000   0.73587   1.000
    I233    I    0.23397   0.76582   0.49979   1.000
    I234    I    0.26415   0.73605   0.00010   1.000
    I235    I    0.50015   0.76634   0.23384   1.000
    I236    I    0.00008   0.26438   0.73577   1.000
    I237    I    0.23395   0.49997   0.76593   1.000
    I238    I    0.73592   0.00006   0.26412   1.000
    I239    I    0.76605   0.23425   0.50022   1.000
    N240    N    0.51352   0.12906   0.94711   1.000
    N241    N    0.48650   0.05286   0.87092   1.000
    N242    N    0.62872   0.44660   0.01130   1.000
    N243    N    0.55331   0.37125   0.98880   1.000
    N244    N    0.94699   0.51336   0.12911   1.000
    N245    N    0.87089   0.48642   0.05301   1.000
    N246    N    0.01133   0.62866   0.44679   1.000
    N247    N    0.98870   0.55312   0.37129   1.000
    N248    N    0.12910   0.94694   0.51350   1.000
    N249    N    0.05302   0.87088   0.48659   1.000
    N250    N    0.44666   0.01114   0.62869   1.000
    N251    N    0.37124   0.98857   0.55320   1.000
    N252    N    0.48651   0.87100   0.05289   1.000
    N253    N    0.51353   0.94720   0.12908   1.000
    N254    N    0.37130   0.55346   0.98862   1.000
    N255    N    0.44671   0.62881   0.01121   1.000
    N256    N    0.05303   0.48669   0.87090   1.000
    N257    N    0.12912   0.51363   0.94700   1.000
    N258    N    0.98868   0.37139   0.55321   1.000
    N259    N    0.01131   0.44693   0.62871   1.000
    N260    N    0.87092   0.05312   0.48649   1.000
    N261    N    0.94700   0.12917   0.51340   1.000
    N262    N    0.55336   0.98892   0.37131   1.000
    N263    N    0.62878   0.01149   0.44672   1.000
loop_
    _geom_bond_atom_site_label_1
    _geom_bond_atom_site_label_2
    _geom_bond_distance
    _geom_bond_site_symmetry_2
    _ccdc_geom_bond_type
    I234   Cu7       2.68711  1_554   S
    C141   C190      1.41479      .   S
    C141   C140      1.41480      .   S
    C141   C189      1.40426  1_554   S
    N255   C190      1.34018      .   S
    N255   Cu6       2.02325      .   S
    N255   N254      1.39033  1_554   S
    N242   C140      1.33988      .   S
    N242   Cu1       2.02364      .   S
    N242   N243      1.39061  1_554   S
    H89    C195      1.10122      .   S
    C190   C191      1.49797      .   S
    C140   C145      1.49780      .   S
    C198   C149      1.41526      .   S
    C198   C199      1.49445      .   S
    C198   N257      1.33976  1_554   S
    C132   C133      1.41530      .   S
    C132   C137      1.49444      .   S
    C132   N240      1.33972  1_554   S
    H22    C143      1.10622  1_554   S
    H85    C193      1.10654  1_554   S
    C145   H24       1.10090      .   S
    C145   C192      1.54812      .   S
    C145   H25       1.10663  1_554   S
    C191   H83       1.10095      .   S
    C191   C192      1.54826      .   S
    C191   H82       1.10653  1_554   S
    C149   C148      1.41542      .   S
    C149   C197      1.40063  1_454   S
    C133   C182      1.41527      .   S
    C133   C181      1.40091  1_544   S
    N252   Cu6       2.02472      .   S
    N252   N253      1.39042      .   S
    N252   C180      1.33973  1_554   S
    N245   Cu1       2.02544      .   S
    N245   N244      1.39029      .   S
    N245   C150      1.33978  1_554   S
    Cu1    I228      2.68699  1_554   S
    C195   C192      1.53297      .   S
    C195   H90       1.09955      .   S
    C195   H91       1.09953      .   S
    C192   C194      1.53473      .   S
    H92    C199      1.10033      .   S
    H15    C137      1.10038      .   S
    H97    C202      1.09925      .   S
    H77    C186      1.09928      .   S
    C199   H93       1.10524      .   S
    C199   C200      1.54801      .   S
    C137   H14       1.10513      .   S
    C137   C184      1.54744      .   S
    C148   N244      1.33879  1_455   S
    C148   C153      1.49430      .   S
    C182   N253      1.33916  1_545   S
    C182   C183      1.49447      .   S
    N253   Cu11      2.02519      .   S
    N244   Cu2       2.02550      .   S
    H98    C202      1.09987      .   S
    H76    C186      1.09989      .   S
    C202   C200      1.53825      .   S
    C202   H96       1.09994      .   S
    C186   C184      1.53831      .   S
    C186   H78       1.09984      .   S
    H50    C163      1.09887      .   S
    H71    C179      1.09947      .   S
    C194   H87       1.09865      .   S
    C194   H88       1.09864      .   S
    C194   H86       1.09865      .   S
    C200   C153      1.54783      .   S
    C200   C203      1.53234      .   S
    C184   C183      1.54815      .   S
    C184   C187      1.53261      .   S
    C153   H34       1.10512      .   S
    C153   H35       1.09944      .   S
    C183   H73       1.10514      .   S
    C183   H72       1.10028      .   S
    H68    C178      1.10136      .   S
    H46    C162      1.09863      .   S
    C163   H51       1.09986      .   S
    C163   H49       1.10127      .   S
    C163   C160      1.53355      .   S
    C179   H70       1.09902      .   S
    C179   H69       1.10124      .   S
    C179   C176      1.53305      .   S
    I235   Cu11      2.67121      .   S
    I231   Cu2       2.67033      .   S
    H43    C159      1.10103      .   S
    H124   C225      1.10087      .   S
    Cu11   I238      2.68721  1_565   S
    Cu11   N262      2.02318      .   S
    Cu2    N247      2.02275      .   S
    H99    C203      1.09975      .   S
    H81    C187      1.09970      .   S
    I230   Cu3       2.68836  1_655   S
    C203   H100      1.09734      .   S
    C203   H101      1.09968      .   S
    C187   H80       1.09733      .   S
    C187   H79       1.09981      .   S
    C178   H66       1.09875      .   S
    C178   C176      1.53458      .   S
    C178   H67       1.09868      .   S
    C162   H48       1.09874      .   S
    C162   C160      1.53460      .   S
    C162   H47       1.09870      .   S
    H42    C159      1.10568  1_455   S
    H125   C225      1.10594  1_545   S
    C159   C160      1.54828      .   S
    C159   C158      1.49792      .   S
    C225   C176      1.54825      .   S
    C225   C220      1.49789      .   S
    C160   C209      1.54818      .   S
    C176   C175      1.54823      .   S
    H60    C171      1.09730      .   S
    H114   C217      1.10536      .   S
    H53    C167      1.10507      .   S
    N247   C158      1.34014      .   S
    N247   N246      1.39070  1_655   S
    N262   C220      1.34014      .   S
    N262   N263      1.39057  1_565   S
    C158   C205      1.41488      .   S
    C220   C221      1.41478      .   S
    H117   C218      1.09925      .   S
    C209   H105      1.10564  1_655   S
    C209   H104      1.10089      .   S
    C209   C204      1.49794      .   S
    C175   H62       1.10599  1_565   S
    C175   H63       1.10088      .   S
    C175   C174      1.49794      .   S
    H116   C218      1.09987      .   S
    H118   C218      1.09989      .   S
    C218   C216      1.53830      .   S
    C171   H61       1.09976      .   S
    C171   H59       1.09974      .   S
    C171   C168      1.53231      .   S
    Cu3    N246      2.02308      .   S
    Cu3    N249      2.02595      .   S
    Cu3    I233      2.67028      .   S
    Cu10   N263      2.02322      .   S
    Cu10   N260      2.02549      .   S
    Cu10   I239      2.67017      .   S
    C217   H115      1.10034      .   S
    C217   C168      1.54796      .   S
    C217   C212      1.49444      .   S
    C167   H52       1.10041      .   S
    C167   C168      1.54791      .   S
    C167   C166      1.49434      .   S
    N263   C222      1.34021      .   S
    N246   C156      1.33999      .   S
    C205   C204      1.41480      .   S
    C205   C157      1.40461  1_655   S
    C221   C174      1.41483      .   S
    C221   C173      1.40457  1_565   S
    C204   N258      1.34001      .   S
    C174   N251      1.33871      .   S
    C168   C170      1.53814      .   S
    C212   N260      1.33917  1_565   S
    C212   C213      1.41531      .   S
    C166   N249      1.33880  1_655   S
    C166   C213      1.41533      .   S
    N260   N261      1.39027      .   S
    N249   N248      1.39029      .   S
    C213   C165      1.40036  1_665   S
    C165   C214      1.41533      .   S
    C165   C164      1.41531      .   S
    N261   C214      1.33882  1_655   S
    N261   Cu9       2.02593      .   S
    N248   C164      1.33919  1_565   S
    N248   Cu4       2.02550      .   S
    C214   C215      1.49435      .   S
    C164   C169      1.49594      .   S
    C216   C169      1.54324      .   S
    C216   C215      1.54785      .   S
    C216   C219      1.53231      .   S
    C222   C173      1.41476      .   S
    C222   C223      1.49788      .   S
    C156   C157      1.41482      .   S
    C156   C161      1.49793      .   S
    H55    C169      1.09564      .   S
    H112   C215      1.10039      .   S
    C173   C172      1.41474      .   S
    C157   C206      1.41488      .   S
    N251   Cu4       2.02388      .   S
    N251   N250      1.39138  1_565   S
    N258   Cu9       2.02305      .   S
    N258   N259      1.39070  1_655   S
    H119   C219      1.09974      .   S
    H121   C219      1.09972      .   S
    C169   H54       1.11398      .   S
    C215   H113      1.10521      .   S
    Cu9    I236      2.68822  1_655   S
    C219   H120      1.09730      .   S
    C170   H58       1.09990      .   S
    C170   H56       1.09994      .   S
    C170   H57       1.09927      .   S
    H123   C223      1.10090      .   S
    H44    C161      1.10095      .   S
    H122   C223      1.10569  1_565   S
    H45    C161      1.10563  1_655   S
    C223   C224      1.54822      .   S
    C161   C208      1.54819      .   S
    C172   N250      1.34009      .   S
    C172   C177      1.49795      .   S
    C206   N259      1.34016      .   S
    C206   C207      1.49751      .   S
    N250   Cu5       2.02335      .   S
    N259   Cu8       2.02271      .   S
    H107   C210      1.09868      .   S
    H127   C226      1.09861      .   S
    H19    C139      1.09979      .   S
    H41    C155      1.09981      .   S
    C224   C177      1.54828      .   S
    C224   C226      1.53460      .   S
    C224   C227      1.53309      .   S
    C208   C207      1.54795      .   S
    C208   C210      1.53461      .   S
    C208   C211      1.53313      .   S
    C177   H65       1.10593  1_545   S
    C177   H64       1.10085      .   S
    C207   H102      1.10591  1_455   S
    C207   H103      1.10158      .   S
    H108   C210      1.09864      .   S
    H126   C226      1.09869      .   S
    H20    C139      1.09733      .   S
    H40    C155      1.09732      .   S
    C210   H106      1.09864      .   S
    C226   H128      1.09867      .   S
    C139   H21       1.09971      .   S
    C139   C136      1.53235      .   S
    C155   H39       1.09974      .   S
    C155   C152      1.53232      .   S
    I232   Cu5       2.68693      .   S
    H12    C135      1.09981      .   S
    H95    C201      1.10037      .   S
    Cu8    I237      2.67011      .   S
    Cu8    N256      2.02565      .   S
    Cu5    N241      2.02506      .   S
    H13    C135      1.10511      .   S
    H94    C201      1.10516      .   S
    H129   C227      1.10121      .   S
    I229   Cu0       2.67145      .   S
    H109   C211      1.10124      .   S
    H130   C227      1.09972      .   S
    H111   C211      1.09956      .   S
    C227   H131      1.09947      .   S
    C211   H110      1.09945      .   S
    H26    C146      1.09869      .   S
    H28    C146      1.09900      .   S
    H18    C138      1.09998      .   S
    H36    C154      1.09992      .   S
    C135   C136      1.54816      .   S
    C135   C134      1.49477      .   S
    C201   C152      1.54786      .   S
    C201   C196      1.49438      .   S
    H27    C146      1.09870      .   S
    C136   C138      1.53827      .   S
    C136   C185      1.54791      .   S
    C152   C154      1.53828      .   S
    C152   C151      1.54790      .   S
    C146   C144      1.53455      .   S
    C138   H16       1.09989      .   S
    C138   H17       1.09928      .   S
    C154   H38       1.09988      .   S
    C154   H37       1.09926      .   S
    H74    C185      1.10513      .   S
    H33    C151      1.10513      .   S
    N256   C196      1.33881  1_455   S
    N256   N257      1.39030      .   S
    N241   C134      1.33915  1_545   S
    N241   N240      1.39041      .   S
    C134   C181      1.41529      .   S
    C196   C197      1.41526      .   S
    H31    C147      1.09952      .   S
    H30    C147      1.09950      .   S
    C185   H75       1.10037      .   S
    C185   C180      1.49444      .   S
    C151   H32       1.10033      .   S
    C151   C150      1.49452      .   S
    C144   C147      1.53297      .   S
    C144   C143      1.54829      .   S
    C144   C193      1.54818      .   S
    C147   H29       1.10122      .   S
    H23    C143      1.10095      .   S
    H84    C193      1.10098      .   S
    Cu7    N257      2.02539      .   S
    Cu7    N254      2.02334      .   S
    Cu0    N240      2.02473      .   S
    Cu0    N243      2.02315      .   S
    C181   C180      1.41528      .   S
    C197   C150      1.41533      .   S
    C143   C142      1.49797      .   S
    C193   C188      1.49785      .   S
    C188   N254      1.34012      .   S
    C188   C189      1.41477      .   S
    C142   N243      1.34016      .   S
    C142   C189      1.41477      .   S
