# CIF file generated by openbabel 2.4.90, see http://openbabel.sf.net
data_I
_chemical_name_common ''
_cell_length_a 9.647
_cell_length_b 19.512
_cell_length_c 23.029
_cell_angle_alpha 89.998
_cell_angle_beta 93.397
_cell_angle_gamma 89.999
_space_group_name_H-M_alt 'P 1'
_space_group_name_Hall 'P 1'
loop_
    _symmetry_equiv_pos_as_xyz
    x,y,z
loop_
    _atom_site_label
    _atom_site_type_symbol
    _atom_site_fract_x
    _atom_site_fract_y
    _atom_site_fract_z
    _atom_site_occupancy
    H0      H    0.39483   0.02886   0.87074   1.000
    H1      H    0.39483   0.52886   0.87074   1.000
    H2      H    0.89484   0.02886   0.87074   1.000
    H3      H    0.89485   0.52887   0.87074   1.000
    H4      H    0.48162   0.36843   0.68305   1.000
    H5      H    0.48164   0.86843   0.68305   1.000
    H6      H    0.98163   0.36843   0.68305   1.000
    H7      H    0.98165   0.86843   0.68305   1.000
    H8      H    0.05034   0.38877   0.78525   1.000
    H9      H    0.05036   0.88877   0.78526   1.000
    H10     H    0.55034   0.38877   0.78520   1.000
    H11     H    0.55037   0.88877   0.78526   1.000
    H12     H    0.26169   0.05891   0.78749   1.000
    H13     H    0.26170   0.55891   0.78749   1.000
    H14     H    0.76171   0.05891   0.78749   1.000
    H15     H    0.76172   0.55891   0.78749   1.000
    H16     H    0.18964   0.03690   0.68530   1.000
    H17     H    0.18964   0.53691   0.68530   1.000
    H18     H    0.68966   0.03691   0.68530   1.000
    H19     H    0.68966   0.53691   0.68534   1.000
    H20     H    0.14049   0.43823   0.86707   1.000
    H21     H    0.14049   0.93824   0.86708   1.000
    H22     H    0.64050   0.43823   0.86707   1.000
    H23     H    0.64051   0.93823   0.86707   1.000
    H24     H    0.07938   0.48227   0.92643   1.000
    H25     H    0.07938   0.98228   0.92643   1.000
    H26     H    0.57938   0.48227   0.92643   1.000
    H27     H    0.57939   0.98228   0.92643   1.000
    H28     H    0.10524   0.27886   0.62922   1.000
    H29     H    0.10525   0.77886   0.62920   1.000
    H30     H    0.60526   0.27886   0.62922   1.000
    H31     H    0.60527   0.77886   0.62920   1.000
    H32     H    0.01848   0.11843   0.81692   1.000
    H33     H    0.01848   0.61844   0.81692   1.000
    H34     H    0.51849   0.11843   0.81692   1.000
    H35     H    0.51850   0.61844   0.81692   1.000
    H36     H    0.44975   0.13876   0.71472   1.000
    H37     H    0.44976   0.63877   0.71472   1.000
    H38     H    0.94976   0.13876   0.71472   1.000
    H39     H    0.94976   0.63877   0.71472   1.000
    H40     H    0.23837   0.30891   0.71246   1.000
    H41     H    0.23838   0.80891   0.71246   1.000
    H42     H    0.73839   0.30890   0.71246   1.000
    H43     H    0.73840   0.80891   0.71246   1.000
    H44     H    0.31044   0.28691   0.81461   1.000
    H45     H    0.31045   0.78691   0.81461   1.000
    H46     H    0.81046   0.28691   0.81461   1.000
    H47     H    0.81047   0.78691   0.81461   1.000
    H48     H    0.35961   0.18821   0.63289   1.000
    H49     H    0.35962   0.68822   0.63289   1.000
    H50     H    0.85962   0.18821   0.63289   1.000
    H51     H    0.85962   0.68822   0.63289   1.000
    H52     H    0.42070   0.23227   0.57353   1.000
    H53     H    0.42071   0.73227   0.57353   1.000
    H54     H    0.92070   0.23227   0.57353   1.000
    H55     H    0.92072   0.73227   0.57353   1.000
    H56     H    0.10523   0.47113   0.12923   1.000
    H57     H    0.10524   0.97113   0.12920   1.000
    H58     H    0.60524   0.47114   0.12923   1.000
    H59     H    0.60526   0.97113   0.12920   1.000
    C60     C    0.16799   0.20158   0.82318   1.000
    C61     C    0.16800   0.70159   0.82318   1.000
    C62     C    0.66801   0.20158   0.82318   1.000
    H63     H    0.01849   0.13157   0.31693   1.000
    H64     H    0.01850   0.63157   0.31693   1.000
    H65     H    0.51850   0.13157   0.31693   1.000
    H66     H    0.51851   0.63158   0.31693   1.000
    H67     H    0.44974   0.11123   0.21473   1.000
    H68     H    0.44975   0.61124   0.21473   1.000
    H69     H    0.94976   0.11123   0.21473   1.000
    H70     H    0.94976   0.61123   0.21473   1.000
    H71     H    0.23837   0.44109   0.21248   1.000
    H72     H    0.23839   0.94109   0.21248   1.000
    H73     H    0.73839   0.44109   0.21248   1.000
    H74     H    0.73841   0.94109   0.21248   1.000
    H75     H    0.31046   0.46309   0.31462   1.000
    H76     H    0.31047   0.96309   0.31462   1.000
    H77     H    0.81048   0.46309   0.31462   1.000
    H78     H    0.81049   0.96309   0.31462   1.000
    H79     H    0.35959   0.06177   0.13291   1.000
    H80     H    0.35959   0.56178   0.13291   1.000
    H81     H    0.85960   0.06177   0.13290   1.000
    H82     H    0.85960   0.56178   0.13291   1.000
    C83     C    0.45530   0.04852   0.11168   1.000
    C84     C    0.45529   0.54853   0.11168   1.000
    C85     C    0.95531   0.04852   0.11168   1.000
    C86     C    0.95531   0.54853   0.11168   1.000
    H87     H    0.42068   0.01772   0.07355   1.000
    H88     H    0.42069   0.51773   0.07355   1.000
    H89     H    0.92070   0.01772   0.07355   1.000
    H90     H    0.92070   0.51773   0.07355   1.000
    H91     H    0.39487   0.22114   0.37076   1.000
    H92     H    0.39488   0.72115   0.37076   1.000
    H93     H    0.89487   0.22114   0.37076   1.000
    H94     H    0.89489   0.72115   0.37076   1.000
    H95     H    0.48158   0.38157   0.18305   1.000
    H96     H    0.48159   0.88157   0.18305   1.000
    H97     H    0.98159   0.38157   0.18305   1.000
    H98     H    0.98160   0.88157   0.18305   1.000
    H99     H    0.05033   0.36124   0.28525   1.000
    H100    H    0.05034   0.86125   0.28525   1.000
    H101    H    0.55034   0.36124   0.28525   1.000
    H102    H    0.55035   0.86124   0.28525   1.000
    H103    H    0.26171   0.19109   0.28750   1.000
    H104    H    0.26172   0.69110   0.28752   1.000
    H105    H    0.76173   0.19109   0.28750   1.000
    H106    H    0.76174   0.69110   0.28752   1.000
    H107    H    0.18962   0.21309   0.18537   1.000
    H108    H    0.18963   0.71310   0.18537   1.000
    H109    H    0.68964   0.21309   0.18537   1.000
    H110    H    0.68965   0.71309   0.18537   1.000
    H111    H    0.14052   0.31177   0.36700   1.000
    H112    H    0.14054   0.81177   0.36706   1.000
    H113    H    0.64053   0.31177   0.36706   1.000
    H114    H    0.64055   0.81178   0.36706   1.000
    H115    H    0.07944   0.26772   0.42643   1.000
    H116    H    0.07947   0.76773   0.42643   1.000
    H117    H    0.57946   0.26772   0.42643   1.000
    H118    H    0.57948   0.76773   0.42642   1.000
    C119    C    0.33210   0.45158   0.67678   1.000
    C120    C    0.33212   0.95159   0.67678   1.000
    C121    C    0.83211   0.45158   0.67678   1.000
    C122    C    0.83214   0.95159   0.67678   1.000
    C123    C    0.43294   0.41021   0.70569   1.000
    C124    C    0.43296   0.91022   0.70569   1.000
    C125    C    0.93295   0.41021   0.70569   1.000
    C126    C    0.93298   0.91022   0.70569   1.000
    C127    C    0.47199   0.42184   0.76394   1.000
    C128    C    0.47201   0.92184   0.76390   1.000
    C129    C    0.97200   0.42183   0.76394   1.000
    C130    C    0.97202   0.92184   0.76390   1.000
    C131    C    0.41249   0.47633   0.79445   1.000
    C132    C    0.41250   0.97633   0.79445   1.000
    C133    C    0.91251   0.47633   0.79445   1.000
    C134    C    0.91252   0.97633   0.79445   1.000
    C135    C    0.30977   0.01709   0.76459   1.000
    C136    C    0.30978   0.51709   0.76459   1.000
    C137    C    0.80979   0.01709   0.76459   1.000
    C138    C    0.80980   0.51709   0.76459   1.000
    C139    C    0.26954   0.50482   0.70678   1.000
    C140    C    0.26956   0.00000   0.70678   1.000
    C141    C    0.76956   0.50482   0.70670   1.000
    C142    C    0.76958   0.00000   0.70670   1.000
    C143    C    0.04478   0.45147   0.88800   1.000
    C144    C    0.04479   0.95148   0.88830   1.000
    C145    C    0.54479   0.45147   0.88800   1.000
    C146    C    0.54480   0.95148   0.88830   1.000
    C147    C    0.66801   0.70159   0.82318   1.000
    C148    C    0.06715   0.16021   0.79420   1.000
    C149    C    0.06716   0.66022   0.79427   1.000
    C150    C    0.56716   0.16021   0.79427   1.000
    C151    C    0.56717   0.66022   0.79427   1.000
    C152    C    0.02809   0.17184   0.73602   1.000
    C153    C    0.02810   0.67184   0.73602   1.000
    C154    C    0.52810   0.17184   0.73602   1.000
    C155    C    0.52811   0.67184   0.73602   1.000
    C156    C    0.08758   0.22633   0.70550   1.000
    C157    C    0.08759   0.72633   0.70550   1.000
    C158    C    0.58760   0.22633   0.70551   1.000
    C159    C    0.58761   0.72633   0.70551   1.000
    C160    C    0.19029   0.26709   0.73537   1.000
    C161    C    0.19030   0.76710   0.73537   1.000
    C162    C    0.69031   0.26709   0.73537   1.000
    C163    C    0.69032   0.76710   0.73537   1.000
    C164    C    0.23054   0.25482   0.79318   1.000
    C165    C    0.23055   0.75483   0.79318   1.000
    C166    C    0.73056   0.25482   0.79318   1.000
    C167    C    0.73057   0.75482   0.79318   1.000
    C168    C    0.45531   0.20147   0.61160   1.000
    C169    C    0.45532   0.70148   0.61166   1.000
    C170    C    0.95532   0.20147   0.61166   1.000
    C171    C    0.95533   0.70147   0.61166   1.000
    C172    C    0.16801   0.04841   0.32319   1.000
    C173    C    0.16802   0.54842   0.32319   1.000
    C174    C    0.66803   0.04841   0.32319   1.000
    C175    C    0.66803   0.54842   0.32319   1.000
    C176    C    0.06716   0.08979   0.29420   1.000
    C177    C    0.06717   0.58979   0.29420   1.000
    C178    C    0.56718   0.08979   0.29420   1.000
    C179    C    0.56718   0.58979   0.29420   1.000
    C180    C    0.02809   0.07816   0.23604   1.000
    C181    C    0.02810   0.57817   0.23600   1.000
    C182    C    0.52811   0.07816   0.23604   1.000
    C183    C    0.52812   0.57817   0.23600   1.000
    C184    C    0.08758   0.02367   0.20553   1.000
    C185    C    0.08759   0.52367   0.20553   1.000
    C186    C    0.58760   0.02367   0.20553   1.000
    C187    C    0.58760   0.52367   0.20553   1.000
    C188    C    0.19030   0.48291   0.23538   1.000
    C189    C    0.19031   0.98291   0.23538   1.000
    C190    C    0.69032   0.48291   0.23538   1.000
    C191    C    0.69033   0.98291   0.23538   1.000
    C192    C    0.23055   0.99518   0.29300   1.000
    C193    C    0.23056   0.49518   0.29300   1.000
    C194    C    0.73057   0.99518   0.29319   1.000
    C195    C    0.73057   0.49518   0.29319   1.000
    C196    C    0.33207   0.29841   0.17679   1.000
    C197    C    0.33208   0.79842   0.17679   1.000
    C198    C    0.83209   0.29841   0.17679   1.000
    C199    C    0.83210   0.79842   0.17679   1.000
    C200    C    0.43291   0.33979   0.20569   1.000
    C201    C    0.43292   0.83979   0.20569   1.000
    C202    C    0.93293   0.33979   0.20500   1.000
    C203    C    0.93294   0.83979   0.20569   1.000
    C204    C    0.47198   0.32817   0.26390   1.000
    C205    C    0.47199   0.82817   0.26394   1.000
    C206    C    0.97200   0.32816   0.26390   1.000
    C207    C    0.97201   0.82817   0.26394   1.000
    C208    C    0.41250   0.27368   0.29446   1.000
    C209    C    0.41251   0.77368   0.29446   1.000
    C210    C    0.91251   0.27368   0.29446   1.000
    C211    C    0.91252   0.77368   0.29446   1.000
    C212    C    0.30978   0.23291   0.26461   1.000
    C213    C    0.30979   0.73292   0.26461   1.000
    C214    C    0.80980   0.23291   0.26461   1.000
    C215    C    0.80981   0.73291   0.26461   1.000
    C216    C    0.26953   0.24518   0.20600   1.000
    C217    C    0.26953   0.74518   0.20680   1.000
    C218    C    0.76954   0.24518   0.20679   1.000
    C219    C    0.76955   0.74518   0.20600   1.000
    C220    C    0.04482   0.29853   0.38830   1.000
    C221    C    0.04485   0.79853   0.38830   1.000
    C222    C    0.54484   0.29853   0.38830   1.000
    C223    C    0.54486   0.79853   0.38830   1.000
    N224    N    0.45215   0.49221   0.85107   1.000
    N225    N    0.45216   0.99222   0.85107   1.000
    N226    N    0.95217   0.49221   0.85107   1.000
    N227    N    0.95218   0.99222   0.85107   1.000
    N228    N    0.04791   0.24222   0.64889   1.000
    N229    N    0.04792   0.74222   0.64889   1.000
    N230    N    0.54793   0.24221   0.64889   1.000
    N231    N    0.54794   0.74222   0.64889   1.000
    N232    N    0.04791   0.00778   0.14891   1.000
    N233    N    0.04791   0.50779   0.14891   1.000
    N234    N    0.54792   0.00778   0.14891   1.000
    N235    N    0.54792   0.50779   0.14891   1.000
    N236    N    0.45218   0.25779   0.35108   1.000
    N237    N    0.45219   0.75780   0.35108   1.000
    N238    N    0.95219   0.25779   0.35108   1.000
    N239    N    0.95221   0.75780   0.35108   1.000
loop_
    _geom_bond_atom_site_label_1
    _geom_bond_atom_site_label_2
    _geom_bond_distance
    _geom_bond_site_symmetry_2
    _ccdc_geom_bond_type
    H88    C84       1.09951      .   S
    H87    C83       1.09954      .   S
    H89    C85       1.09954      .   S
    H90    C86       1.09950      .   S
    C86    H82       1.10082      .   S
    C86    N233      1.44026  1_655   S
    C85    H81       1.10069      .   S
    C85    N232      1.44021  1_655   S
    C84    H80       1.10081      .   S
    C84    N235      1.44039      .   S
    C83    H79       1.10080      .   S
    C83    N234      1.44037      .   S
    H57    N232      1.02616  1_565   S
    H59    N234      1.02616  1_565   S
    H58    N235      1.02579      .   S
    H56    N233      1.02580      .   S
    N234   C186      1.37246      .   S
    N232   C184      1.37246      .   S
    N233   C185      1.37246      .   S
    N235   C187      1.37247      .   S
    C196   C200      1.40159      .   S
    C196   C216      1.39409      .   S
    C197   C201      1.40159      .   S
    C197   C217      1.40354      .   S
    C198   C202      1.39476      .   S
    C198   C218      1.40344      .   S
    C199   C203      1.40157      .   S
    C199   C219      1.39409      .   S
    H95    C200      1.08895      .   S
    H97    C202      1.08102      .   S
    H96    C201      1.08895      .   S
    H98    C203      1.08895      .   S
    H107   C216      1.08100      .   S
    H108   C217      1.08846      .   S
    H109   C218      1.08835      .   S
    H110   C219      1.08101      .   S
    C202   C206      1.40454      .   S
    C187   C190      1.41648      .   S
    C187   C183      1.41419      .   S
    C186   C191      1.41652  1_545   S
    C186   C182      1.41466      .   S
    C185   C188      1.41645      .   S
    C185   C181      1.41418      .   S
    C184   C189      1.41652  1_545   S
    C184   C180      1.41465      .   S
    C200   C204      1.38945      .   S
    C201   C205      1.39032      .   S
    C203   C207      1.39033      .   S
    C216   C212      1.40276      .   S
    C219   C215      1.40277      .   S
    C218   C214      1.38557      .   S
    C217   C213      1.38535      .   S
    H71    C188      1.08996      .   S
    H72    C189      1.08993      .   S
    H73    C190      1.08994      .   S
    H74    C191      1.08993      .   S
    H67    C182      1.08845      .   S
    H68    C183      1.08805      .   S
    H69    C180      1.08828  1_655   S
    H70    C181      1.08789  1_655   S
    C191   C194      1.38534      .   S
    C190   C195      1.38537      .   S
    C189   C192      1.38122      .   S
    C188   C193      1.38124      .   S
    C183   C179      1.38925      .   S
    C181   C177      1.38925      .   S
    C182   C178      1.38839      .   S
    C180   C176      1.38840      .   S
    C206   H99       1.08867  1_655   S
    C206   C210      1.41518      .   S
    C204   H101      1.08885      .   S
    C204   C208      1.41519      .   S
    C205   H102      1.08847      .   S
    C205   C209      1.41470      .   S
    C207   H100      1.08831  1_655   S
    C207   C211      1.41470      .   S
    C214   H105      1.08976      .   S
    C214   C210      1.41650      .   S
    C215   H106      1.08998      .   S
    C215   C211      1.41652      .   S
    C212   H103      1.08975      .   S
    C212   C208      1.41652      .   S
    C213   H104      1.08998      .   S
    C213   C209      1.41653      .   S
    C192   H76       1.09028      .   S
    C192   C172      1.40576  1_565   S
    C193   H75       1.09020      .   S
    C193   C173      1.40578      .   S
    C194   H78       1.08846      .   S
    C194   C174      1.40350  1_565   S
    C195   H77       1.08840      .   S
    C195   C175      1.40351      .   S
    C176   H63       1.09005      .   S
    C176   C172      1.40245      .   S
    C179   H66       1.09007      .   S
    C179   C175      1.40245      .   S
    C178   H65       1.09006      .   S
    C178   C174      1.40245      .   S
    C177   H64       1.09007      .   S
    C177   C173      1.40245      .   S
    C211   N239      1.37244      .   S
    C210   N238      1.37242      .   S
    C209   N237      1.37245      .   S
    C208   N236      1.37244      .   S
    N239   H94       1.02573      .   S
    N239   C221      1.44025  1_655   S
    N238   H93       1.02575      .   S
    N238   C220      1.44023  1_655   S
    N237   H92       1.02572      .   S
    N237   C223      1.44041      .   S
    N236   H91       1.02573      .   S
    N236   C222      1.44038      .   S
    H111   C220      1.10150      .   S
    H114   C223      1.10078      .   S
    H113   C222      1.10080      .   S
    H112   C221      1.10080      .   S
    C220   H115      1.09955      .   S
    C221   H116      1.09956      .   S
    C222   H117      1.09956      .   S
    C223   H118      1.09940      .   S
    H55    C171      1.09950      .   S
    H52    C168      1.09841      .   S
    H53    C169      1.09949      .   S
    H54    C170      1.09950      .   S
    C168   H48       1.10150      .   S
    C168   N230      1.44118      .   S
    C171   H51       1.10081      .   S
    C171   N229      1.44027  1_655   S
    C170   H50       1.10080      .   S
    C170   N228      1.44025  1_655   S
    C169   H49       1.10081      .   S
    C169   N231      1.44041      .   S
    H31    N231      1.02588      .   S
    H29    N229      1.02587      .   S
    H30    N230      1.02567      .   S
    H28    N228      1.02565      .   S
    N228   C156      1.37222      .   S
    N229   C157      1.37220      .   S
    N230   C158      1.37242      .   S
    N231   C159      1.37242      .   S
    C122   C126      1.40158      .   S
    C122   C142      1.33440  1_565   S
    C121   C125      1.40159      .   S
    C121   C141      1.40260      .   S
    C120   C124      1.40160      .   S
    C120   C140      1.33543  1_565   S
    C119   C123      1.40160      .   S
    C119   C139      1.40353      .   S
    H6     C125      1.08905      .   S
    H5     C124      1.08902      .   S
    H4     C123      1.08904      .   S
    H7     C126      1.08903      .   S
    H16    C140      1.14557      .   S
    H17    C139      1.08885      .   S
    H18    C142      1.14487      .   S
    H19    C141      1.08771      .   S
    C156   C160      1.41667      .   S
    C156   C152      1.41476      .   S
    C157   C161      1.41667      .   S
    C157   C153      1.41475      .   S
    C158   C162      1.41656      .   S
    C158   C154      1.41462      .   S
    C159   C163      1.41657      .   S
    C159   C155      1.41461      .   S
    C123   C127      1.39030      .   S
    C124   C128      1.38943      .   S
    C125   C129      1.39030      .   S
    C126   C130      1.38944      .   S
    C142   C137      1.40634      .   S
    C141   C138      1.38707      .   S
    C140   C135      1.40461      .   S
    C139   C136      1.38533      .   S
    H40    C160      1.09002      .   S
    H43    C163      1.09001      .   S
    H42    C162      1.09002      .   S
    H41    C161      1.09003      .   S
    H36    C154      1.08834      .   S
    H39    C153      1.08818  1_655   S
    H37    C155      1.08835      .   S
    H38    C152      1.08820  1_655   S
    C162   C166      1.38534      .   S
    C161   C165      1.38533      .   S
    C160   C164      1.38533      .   S
    C163   C167      1.38534      .   S
    C155   C151      1.39031      .   S
    C154   C150      1.39031      .   S
    C153   C149      1.39030      .   S
    C152   C148      1.38878      .   S
    C130   H9        1.08871  1_655   S
    C130   C134      1.41519      .   S
    C128   H11       1.08886      .   S
    C128   C132      1.41519      .   S
    C129   H8        1.08824  1_655   S
    C129   C133      1.41471      .   S
    C127   H10       1.08791      .   S
    C127   C131      1.41469      .   S
    C135   H12       1.08996      .   S
    C135   C132      1.41658  1_545   S
    C136   H13       1.08996      .   S
    C136   C131      1.41653      .   S
    C137   H14       1.08996      .   S
    C137   C134      1.41657  1_545   S
    C138   H15       1.08998      .   S
    C138   C133      1.41654      .   S
    C164   H44       1.08842      .   S
    C164   C60       1.40348      .   S
    C167   H47       1.08842      .   S
    C167   C147      1.40347      .   S
    C166   H46       1.08842      .   S
    C166   C62       1.40346      .   S
    C165   H45       1.08842      .   S
    C165   C61       1.40347      .   S
    C148   H32       1.08992      .   S
    C148   C60       1.40235      .   S
    C151   H35       1.08910      .   S
    C151   C147      1.40165      .   S
    C150   H34       1.08909      .   S
    C150   C62       1.40166      .   S
    C149   H33       1.08912      .   S
    C149   C61       1.40165      .   S
    C132   N225      1.37242      .   S
    C133   N226      1.37243      .   S
    C131   N224      1.37242      .   S
    C134   N227      1.37242      .   S
    N225   H0        1.02574  1_565   S
    N225   C146      1.44037      .   S
    N227   H2        1.02575  1_565   S
    N227   C144      1.44022  1_655   S
    N226   H3        1.02571      .   S
    N226   C143      1.43640  1_655   S
    N224   H1        1.02569      .   S
    N224   C145      1.43658      .   S
    H20    C143      1.09743      .   S
    H22    C145      1.09743      .   S
    H23    C146      1.10083      .   S
    H21    C144      1.10072      .   S
    C143   H24       1.10489      .   S
    C145   H26       1.10488      .   S
    C146   H27       1.09950      .   S
    C144   H25       1.09949      .   S
