# CIF file generated by openbabel 2.4.90, see http://openbabel.sf.net
data_I
_chemical_name_common ''
_cell_length_a 9.647
_cell_length_b 19.512
_cell_length_c 23.029
_cell_angle_alpha 89.998
_cell_angle_beta 93.397
_cell_angle_gamma 89.999
_space_group_name_H-M_alt 'P 1'
_space_group_name_Hall 'P 1'
loop_
    _symmetry_equiv_pos_as_xyz
    x,y,z
loop_
    _atom_site_label
    _atom_site_type_symbol
    _atom_site_fract_x
    _atom_site_fract_y
    _atom_site_fract_z
    _atom_site_occupancy
    Cd0     Cd   0.00008   0.50000   0.49999   1.000
    Cd1     Cd   0.50010   0.99999   0.49999   1.000
    Cd2     Cd   0.50009   0.50000   0.49999   1.000
    Cd3     Cd   0.00004   0.25000   0.00000   1.000
    Cd4     Cd   0.00004   0.75001   0.99999   1.000
    Cd5     Cd   0.50005   0.25000   0.00000   1.000
    Cd6     Cd   0.50006   0.75001   0.99999   1.000
    H7      H    0.32763   0.32340   0.91079   1.000
    Cd8     Cd   0.00009   0.99999   0.49999   1.000
    H9      H    0.32764   0.82341   0.91079   1.000
    H10     H    0.82764   0.32340   0.91079   1.000
    H11     H    0.82765   0.82341   0.91079   1.000
    H12     H    0.17250   0.07342   0.58917   1.000
    H13     H    0.17250   0.57342   0.58917   1.000
    H14     H    0.67251   0.07341   0.58917   1.000
    H15     H    0.67251   0.57342   0.58917   1.000
    C16     C    0.48694   0.88454   0.91133   1.000
    H17     H    0.17245   0.17659   0.08918   1.000
    H18     H    0.17245   0.67659   0.08918   1.000
    H19     H    0.67246   0.17659   0.08918   1.000
    H20     H    0.67247   0.67659   0.08918   1.000
    C21     C    0.51317   0.11546   0.08864   1.000
    H22     H    0.32769   0.42661   0.41080   1.000
    H23     H    0.32772   0.92661   0.41080   1.000
    H24     H    0.82770   0.42661   0.41080   1.000
    H25     H    0.82773   0.92661   0.41080   1.000
    C26     C    0.98692   0.38454   0.91133   1.000
    C27     C    0.98693   0.88454   0.91133   1.000
    C28     C    0.48693   0.38454   0.91133   1.000
    C29     C    0.51320   0.13454   0.58863   1.000
    C30     C    0.51320   0.63454   0.58863   1.000
    C31     C    0.00000   0.13454   0.58863   1.000
    C32     C    0.00000   0.63454   0.58863   1.000
    C33     C    0.51317   0.61546   0.08864   1.000
    C34     C    0.00000   0.11546   0.08864   1.000
    C35     C    0.00000   0.61546   0.08864   1.000
    C36     C    0.98698   0.36547   0.41134   1.000
    C37     C    0.98701   0.86547   0.41134   1.000
    C38     C    0.48699   0.36546   0.41134   1.000
    C39     C    0.48702   0.86547   0.41134   1.000
    O40     O    0.35663   0.37160   0.89514   1.000
    O41     O    0.35664   0.87160   0.89514   1.000
    O42     O    0.85664   0.37160   0.89514   1.000
    O43     O    0.85665   0.87160   0.89514   1.000
    O44     O    0.06400   0.34720   0.94268   1.000
    O45     O    0.06401   0.84720   0.94268   1.000
    O46     O    0.56401   0.34720   0.94268   1.000
    O47     O    0.56402   0.84721   0.94268   1.000
    O48     O    0.14350   0.12161   0.60483   1.000
    O49     O    0.14350   0.62161   0.60483   1.000
    O50     O    0.64351   0.12161   0.60483   1.000
    O51     O    0.64351   0.62161   0.60483   1.000
    O52     O    0.43614   0.09720   0.55728   1.000
    O53     O    0.43614   0.59720   0.55728   1.000
    O54     O    0.93616   0.09720   0.55728   1.000
    O55     O    0.93615   0.59721   0.55728   1.000
    O56     O    0.14345   0.12839   0.10484   1.000
    O57     O    0.14346   0.62840   0.10484   1.000
    O58     O    0.64347   0.12839   0.10484   1.000
    O59     O    0.64347   0.62839   0.10484   1.000
    O60     O    0.43609   0.15279   0.05730   1.000
    O61     O    0.43610   0.65280   0.05729   1.000
    O62     O    0.93610   0.15280   0.05730   1.000
    O63     O    0.93611   0.65280   0.05729   1.000
    O64     O    0.35669   0.37841   0.39515   1.000
    O65     O    0.35672   0.87841   0.39515   1.000
    O66     O    0.85671   0.37841   0.39515   1.000
    O67     O    0.85674   0.87842   0.39515   1.000
    O68     O    0.06408   0.40279   0.44268   1.000
    O69     O    0.06411   0.90280   0.44268   1.000
    O70     O    0.56409   0.40279   0.44268   1.000
    O71     O    0.56412   0.90279   0.44268   1.000
loop_
    _geom_bond_atom_site_label_1
    _geom_bond_atom_site_label_2
    _geom_bond_distance
    _geom_bond_site_symmetry_2
    _ccdc_geom_bond_type
    Cd3    O62       2.41152  1_455   S
    Cd3    O44       2.41177  1_554   S
    Cd5    O60       2.41162      .   S
    Cd5    O46       2.41177  1_554   S
    O63    C35       1.17429  1_655   S
    O63    Cd4       2.41159  1_654   S
    O61    C33       1.24137      .   S
    O61    Cd6       2.41167  1_554   S
    O62    C34       1.17426  1_655   S
    O60    C21       1.24130      .   S
    C33    O59       1.31432      .   S
    C35    O57       1.43422      .   S
    C21    O58       1.31430      .   S
    C34    O56       1.43418      .   S
    H17    O56       1.05105      .   S
    H18    O57       1.05103      .   S
    H19    O58       1.05105      .   S
    H20    O59       1.05105      .   S
    O64    H22       1.05097      .   S
    O64    C38       1.31427      .   S
    O65    H23       1.05097      .   S
    O65    C39       1.31427      .   S
    O66    H24       1.05097      .   S
    O66    C36       1.31404      .   S
    O67    H25       1.05097      .   S
    O67    C37       1.31405      .   S
    C38    O70       1.24137      .   S
    C36    O68       1.24137  1_655   S
    C37    O69       1.24138  1_655   S
    C39    O71       1.24136      .   S
    O68    Cd0       2.41183      .   S
    O69    Cd8       2.41181      .   S
    O70    Cd2       2.41185      .   S
    O71    Cd1       2.41182      .   S
    Cd0    O55       2.41148  1_455   S
    Cd8    O54       2.41148  1_465   S
    Cd1    O52       2.41154  1_565   S
    Cd2    O53       2.41153      .   S
    O52    C29       1.24138      .   S
    O53    C30       1.24142      .   S
    O54    C31       1.17417  1_655   S
    O55    C32       1.17417  1_655   S
    C31    O48       1.43454      .   S
    C30    O51       1.31431      .   S
    C29    O50       1.31431      .   S
    C32    O49       1.43455      .   S
    H15    O51       1.05104      .   S
    H14    O50       1.05103      .   S
    H13    O49       1.05102      .   S
    H12    O48       1.05103      .   S
    O40    H7        1.05096      .   S
    O40    C28       1.31426      .   S
    O43    H11       1.05098      .   S
    O43    C27       1.31403      .   S
    O42    H10       1.05096      .   S
    O42    C26       1.31406      .   S
    O41    H9        1.05098      .   S
    O41    C16       1.31427      .   S
    C27    O45       1.24148  1_655   S
    C26    O44       1.24141  1_655   S
    C28    O46       1.24141      .   S
    C16    O47       1.24146      .   S
    O47    Cd6       2.41161      .   S
    O45    Cd4       2.41162      .   S
