# CIF file generated by openbabel 2.4.90, see http://openbabel.sf.net
data_I
_chemical_name_common ''
_cell_length_a 9.647
_cell_length_b 19.512
_cell_length_c 23.029
_cell_angle_alpha 89.998
_cell_angle_beta 93.397
_cell_angle_gamma 89.999
_space_group_name_H-M_alt 'P 1'
_space_group_name_Hall 'P 1'
loop_
    _symmetry_equiv_pos_as_xyz
    x,y,z
loop_
    _atom_site_label
    _atom_site_type_symbol
    _atom_site_fract_x
    _atom_site_fract_y
    _atom_site_fract_z
    _atom_site_occupancy
    N0      N    0.77951   0.66903   0.92107   1.000
    N1      N    0.27950   0.66903   0.92107   1.000
    N2      N    0.27949   0.16902   0.92106   1.000
    N3      N    0.22057   0.33097   0.07879   1.000
    N4      N    0.77954   0.08097   0.42106   1.000
    N5      N    0.72063   0.41903   0.57888   1.000
    N6      N    0.22061   0.41903   0.57890   1.000
    N7      N    0.77950   0.16903   0.92106   1.000
    N8      N    0.27953   0.08097   0.42107   1.000
    N9      N    0.72059   0.83097   0.07879   1.000
    N10     N    0.72058   0.33097   0.07879   1.000
    N11     N    0.22057   0.83097   0.07890   1.000
    N12     N    0.77954   0.58097   0.42106   1.000
    N13     N    0.72065   0.91839   0.57890   1.000
    N14     N    0.22063   0.91839   0.57888   1.000
    N15     N    0.27953   0.58097   0.42107   1.000
    Zr16    Zr   0.50012   0.00000   0.49999   1.000
    O17     O    0.42156   0.01985   0.47190   1.000
    O18     O    0.58053   0.03132   0.47308   1.000
    O19     O    0.41968   0.96852   0.52689   1.000
    O20     O    0.57865   0.97960   0.52808   1.000
    Zr21    Zr   0.50005   0.25000   0.99999   1.000
    O22     O    0.42151   0.23015   0.97189   1.000
    O23     O    0.41961   0.28132   0.02687   1.000
    O24     O    0.57858   0.26984   0.02805   1.000
    O25     O    0.58047   0.21868   0.97308   1.000
    Zr26    Zr   0.50010   0.50000   0.49999   1.000
    O27     O    0.57863   0.48016   0.52807   1.000
    O28     O    0.58052   0.53132   0.47308   1.000
    O29     O    0.42155   0.51985   0.47190   1.000
    O30     O    0.41966   0.46868   0.52689   1.000
    Zr31    Zr   0.99865   0.00001   0.49999   1.000
    O32     O    0.07790   0.97960   0.52807   1.000
    O33     O    0.92083   0.01985   0.47189   1.000
    O34     O    0.91895   0.96852   0.52689   1.000
    O35     O    0.07979   0.03132   0.47308   1.000
    Zr36    Zr   0.99858   0.25000   0.99999   1.000
    O37     O    0.91888   0.28132   0.02687   1.000
    O38     O    0.07784   0.26984   0.02805   1.000
    O39     O    0.07973   0.21868   0.97308   1.000
    O40     O    0.92078   0.23015   0.97189   1.000
    Zr41    Zr   0.99863   0.50001   0.49999   1.000
    O42     O    0.07978   0.53132   0.47308   1.000
    O43     O    0.91893   0.46868   0.52689   1.000
    O44     O    0.07789   0.48016   0.52808   1.000
    O45     O    0.92082   0.51985   0.47189   1.000
    Zr46    Zr   0.99859   0.75000   0.99999   1.000
    O47     O    0.91889   0.78132   0.02687   1.000
    O48     O    0.07785   0.76984   0.02808   1.000
    O49     O    0.07974   0.71868   0.97308   1.000
    O50     O    0.92079   0.73016   0.97189   1.000
    Zr51    Zr   0.50006   0.75000   0.99999   1.000
    O52     O    0.57859   0.76984   0.02805   1.000
    O53     O    0.41962   0.78132   0.02690   1.000
    O54     O    0.42152   0.73016   0.97189   1.000
    O55     O    0.58048   0.71868   0.97308   1.000
loop_
    _geom_bond_atom_site_label_1
    _geom_bond_atom_site_label_2
    _geom_bond_distance
    _geom_bond_site_symmetry_2
    _ccdc_geom_bond_type
    Zr16   O17       1.04135      .   S
    N8     O17       2.11652      .   S
    Zr16   O18       1.18998      .   S
    N4     O18       2.51637      .   S
    Zr16   O19       1.19171  1_545   S
    N14    O19       2.51994      .   S
    Zr16   O20       1.04538  1_545   S
    N13    O20       2.11723      .   S
    Zr21   O22       1.04140      .   S
    N2     O22       2.11669      .   S
    Zr21   O23       1.18981  1_556   S
    N3     O23       2.51543      .   S
    Zr21   O24       1.04094  1_556   S
    N10    O24       2.11535      .   S
    Zr21   O25       1.19014      .   S
    N7     O25       2.51655      .   S
    Zr26   O27       1.04119      .   S
    N5     O27       2.11614      .   S
    Zr26   O28       1.19003      .   S
    N12    O28       2.51643      .   S
    Zr26   O29       1.04133      .   S
    N15    O29       2.11650      .   S
    Zr26   O30       1.19017      .   S
    N6     O30       2.51651      .   S
    Zr31   O32       1.05016  1_645   S
    N14    O32       2.12138      .   S
    Zr31   O33       1.03650      .   S
    N4     O33       2.11226      .   S
    Zr31   O34       1.18696  1_545   S
    N13    O34       2.51444      .   S
    Zr31   O35       1.19473  1_655   S
    N8     O35       2.52178      .   S
    Zr36   O37       1.18496  1_556   S
    N10    O37       2.50975      .   S
    Zr36   O38       1.04579  1_656   S
    N3     O38       2.11966      .   S
    Zr36   O39       1.19495  1_655   S
    N2     O39       2.52212      .   S
    Zr36   O40       1.03650      .   S
    N7     O40       2.11230      .   S
    Zr41   O42       1.19478  1_655   S
    N15    O42       2.52183      .   S
    Zr41   O43       1.18527      .   S
    N5     O43       2.51068      .   S
    Zr41   O44       1.04612  1_655   S
    N6     O44       2.12063      .   S
    Zr41   O45       1.03647      .   S
    N12    O45       2.11223      .   S
    Zr46   O47       1.18497  1_556   S
    N9     O47       2.50979      .   S
    Zr46   O48       1.04618  1_656   S
    N11    O48       2.12073      .   S
    Zr46   O49       1.19491  1_655   S
    N1     O49       2.52199      .   S
    Zr46   O50       1.03647      .   S
    N0     O50       2.11218      .   S
    Zr51   O52       1.04093  1_556   S
    N9     O52       2.11536      .   S
    Zr51   O53       1.19019  1_556   S
    N11    O53       2.51652      .   S
    Zr51   O54       1.04136      .   S
    N1     O54       2.11657      .   S
    Zr51   O55       1.19011      .   S
    N0     O55       2.51644      .   S
