# CIF file generated by openbabel 2.4.90, see http://openbabel.sf.net
data_I
_chemical_name_common ''
_cell_length_a 9.647
_cell_length_b 19.512
_cell_length_c 23.029
_cell_angle_alpha 89.998
_cell_angle_beta 93.397
_cell_angle_gamma 89.999
_space_group_name_H-M_alt 'P 1'
_space_group_name_Hall 'P 1'
loop_
    _symmetry_equiv_pos_as_xyz
    x,y,z
loop_
    _atom_site_label
    _atom_site_type_symbol
    _atom_site_fract_x
    _atom_site_fract_y
    _atom_site_fract_z
    _atom_site_occupancy
    N0      N    0.42159   0.46853   0.78377   1.000
    N1      N    0.57851   0.21853   0.71616   1.000
    N2      N    0.77951   0.66903   0.92107   1.000
    N3      N    0.92160   0.46853   0.78377   1.000
    N4      N    0.42160   0.96821   0.78379   1.000
    N5      N    0.27950   0.66903   0.92107   1.000
    N6      N    0.27949   0.16902   0.92106   1.000
    N7      N    0.22057   0.33097   0.07879   1.000
    N8      N    0.77954   0.08097   0.42106   1.000
    N9      N    0.72063   0.41903   0.57888   1.000
    N10     N    0.22061   0.41903   0.57890   1.000
    N11     N    0.92161   0.96821   0.78379   1.000
    N12     N    0.07851   0.71853   0.71616   1.000
    N13     N    0.77950   0.16903   0.92106   1.000
    N14     N    0.27953   0.08097   0.42107   1.000
    N15     N    0.07850   0.21853   0.71616   1.000
    N16     N    0.07851   0.03147   0.21616   1.000
    N17     N    0.92161   0.78148   0.28375   1.000
    N18     N    0.57852   0.03147   0.21617   1.000
    N19     N    0.07850   0.53147   0.21616   1.000
    N20     N    0.57851   0.53147   0.21617   1.000
    N21     N    0.42159   0.28147   0.28375   1.000
    N22     N    0.92160   0.28147   0.28375   1.000
    N23     N    0.57852   0.71853   0.71616   1.000
    N24     N    0.42160   0.78148   0.28381   1.000
    N25     N    0.72059   0.83097   0.07879   1.000
    N26     N    0.72058   0.33097   0.07879   1.000
    N27     N    0.22057   0.83097   0.07890   1.000
    N28     N    0.77954   0.58097   0.42106   1.000
    N29     N    0.72065   0.91839   0.57890   1.000
    N30     N    0.22063   0.91839   0.57888   1.000
    N31     N    0.27953   0.58097   0.42107   1.000
    Zr32    Zr   0.50012   0.00000   0.49999   1.000
    O33     O    0.42156   0.01985   0.47190   1.000
    O34     O    0.58053   0.03132   0.47308   1.000
    O35     O    0.41968   0.96852   0.52689   1.000
    O36     O    0.57865   0.97960   0.52808   1.000
    O37     O    0.51575   0.09663   0.57906   1.000
    O38     O    0.48444   0.90337   0.42090   1.000
    Zr39    Zr   0.50005   0.25000   0.99999   1.000
    O40     O    0.42151   0.23015   0.97189   1.000
    O41     O    0.41961   0.28132   0.02687   1.000
    O42     O    0.57858   0.26984   0.02805   1.000
    O43     O    0.58047   0.21868   0.97308   1.000
    O44     O    0.48439   0.34663   0.92085   1.000
    O45     O    0.51571   0.15336   0.07908   1.000
    Zr46    Zr   0.50010   0.50000   0.49999   1.000
    O47     O    0.51575   0.59664   0.57907   1.000
    O48     O    0.57863   0.48016   0.52807   1.000
    O49     O    0.58052   0.53132   0.47308   1.000
    O50     O    0.42155   0.51985   0.47190   1.000
    O51     O    0.41966   0.46868   0.52689   1.000
    O52     O    0.48443   0.40337   0.42089   1.000
    Zr53    Zr   0.99865   0.00001   0.49999   1.000
    O54     O    0.07790   0.97960   0.52807   1.000
    O55     O    0.92083   0.01985   0.47189   1.000
    O56     O    0.91895   0.96852   0.52689   1.000
    O57     O    0.07979   0.03132   0.47308   1.000
    O58     O    0.01336   0.09664   0.57907   1.000
    O59     O    0.98371   0.90337   0.42089   1.000
    Zr60    Zr   0.99858   0.25000   0.99999   1.000
    O61     O    0.98365   0.34663   0.92085   1.000
    O62     O    0.01333   0.15336   0.07907   1.000
    O63     O    0.91888   0.28132   0.02687   1.000
    O64     O    0.07784   0.26984   0.02805   1.000
    O65     O    0.07973   0.21868   0.97308   1.000
    O66     O    0.92078   0.23015   0.97189   1.000
    Zr67    Zr   0.99863   0.50001   0.49999   1.000
    O68     O    0.07978   0.53132   0.47308   1.000
    O69     O    0.91893   0.46868   0.52689   1.000
    O70     O    0.07789   0.48016   0.52808   1.000
    O71     O    0.92082   0.51985   0.47189   1.000
    O72     O    0.01336   0.59664   0.57907   1.000
    O73     O    0.98369   0.40337   0.42089   1.000
    Zr74    Zr   0.99859   0.75000   0.99999   1.000
    O75     O    0.91889   0.78132   0.02687   1.000
    O76     O    0.07785   0.76984   0.02808   1.000
    O77     O    0.07974   0.71868   0.97308   1.000
    O78     O    0.92079   0.73016   0.97189   1.000
    O79     O    0.98366   0.84656   0.92089   1.000
    O80     O    0.01333   0.65337   0.07907   1.000
    Zr81    Zr   0.50006   0.75000   0.99999   1.000
    O82     O    0.48439   0.84656   0.92090   1.000
    O83     O    0.51571   0.65337   0.07908   1.000
    O84     O    0.57859   0.76984   0.02805   1.000
    O85     O    0.41962   0.78132   0.02690   1.000
    O86     O    0.42152   0.73016   0.97189   1.000
    O87     O    0.58048   0.71868   0.97308   1.000
loop_
    _geom_bond_atom_site_label_1
    _geom_bond_atom_site_label_2
    _geom_bond_distance
    _geom_bond_site_symmetry_2
    _ccdc_geom_bond_type
    Zr32   O33       1.04135      .   S
    N14    O33       2.11652      .   S
    Zr32   O34       1.18998      .   S
    N8     O34       2.51637      .   S
    Zr32   O35       1.19171  1_545   S
    N30    O35       2.51994      .   S
    Zr32   O36       1.04538  1_545   S
    N29    O36       2.11723      .   S
    Zr32   O37       2.61945      .   S
    N1     O37       3.97053      .   S
    Zr32   O38       2.61966  1_545   S
    N24    O38       3.97056      .   S
    Zr39   O40       1.04140      .   S
    N6     O40       2.11669      .   S
    Zr39   O41       1.18981  1_556   S
    N7     O41       2.51543      .   S
    Zr39   O42       1.04094  1_556   S
    N26    O42       2.11535      .   S
    Zr39   O43       1.19014      .   S
    N13    O43       2.51655      .   S
    Zr39   O44       2.62038      .   S
    N0     O44       3.97022      .   S
    Zr39   O45       2.61960  1_556   S
    N18    O45       3.97038      .   S
    Zr46   O47       2.61962      .   S
    N23    O47       3.97048      .   S
    Zr46   O48       1.04119      .   S
    N9     O48       2.11614      .   S
    Zr46   O49       1.19003      .   S
    N28    O49       2.51643      .   S
    Zr46   O50       1.04133      .   S
    N31    O50       2.11650      .   S
    Zr46   O51       1.19017      .   S
    N10    O51       2.51651      .   S
    Zr46   O52       2.61992      .   S
    N21    O52       3.97136      .   S
    Zr53   O54       1.05016  1_645   S
    N30    O54       2.12138      .   S
    Zr53   O55       1.03650      .   S
    N8     O55       2.11226      .   S
    Zr53   O56       1.18696  1_545   S
    N29    O56       2.51444      .   S
    Zr53   O57       1.19473  1_655   S
    N14    O57       2.52178      .   S
    Zr53   O58       2.61943  1_655   S
    N15    O58       3.97286      .   S
    Zr53   O59       2.61978  1_545   S
    N17    O59       3.97054      .   S
    Zr60   O61       2.62026      .   S
    N3     O61       3.96945      .   S
    Zr60   O62       2.61943  1_656   S
    N16    O62       3.97268      .   S
    Zr60   O63       1.18496  1_556   S
    N26    O63       2.50975      .   S
    Zr60   O64       1.04579  1_656   S
    N7     O64       2.11966      .   S
    Zr60   O65       1.19495  1_655   S
    N6     O65       2.52212      .   S
    Zr60   O66       1.03650      .   S
    N13    O66       2.11230      .   S
    Zr67   O68       1.19478  1_655   S
    N31    O68       2.52183      .   S
    Zr67   O69       1.18527      .   S
    N9     O69       2.51068      .   S
    Zr67   O70       1.04612  1_655   S
    N10    O70       2.12063      .   S
    Zr67   O71       1.03647      .   S
    N28    O71       2.11223      .   S
    Zr67   O72       2.61948  1_655   S
    N12    O72       3.97295      .   S
    Zr67   O73       2.61982      .   S
    N22    O73       3.97060      .   S
    Zr74   O75       1.18497  1_556   S
    N25    O75       2.50979      .   S
    Zr74   O76       1.04618  1_656   S
    N27    O76       2.12073      .   S
    Zr74   O77       1.19491  1_655   S
    N5     O77       2.52199      .   S
    Zr74   O78       1.03647      .   S
    N2     O78       2.11218      .   S
    Zr74   O79       2.61847      .   S
    N11    O79       3.96707      .   S
    Zr74   O80       2.61944  1_656   S
    N19    O80       3.97271      .   S
    Zr81   O82       2.61855      .   S
    N4     O82       3.96775      .   S
    Zr81   O83       2.61961  1_556   S
    N20    O83       3.97039      .   S
    Zr81   O84       1.04093  1_556   S
    N25    O84       2.11536      .   S
    Zr81   O85       1.19019  1_556   S
    N27    O85       2.51652      .   S
    Zr81   O86       1.04136      .   S
    N5     O86       2.11657      .   S
    Zr81   O87       1.19011      .   S
    N2     O87       2.51644      .   S
