# CIF file generated by openbabel 2.4.90, see http://openbabel.sf.net
data_I
_chemical_name_common ''
_cell_length_a 20.365
_cell_length_b 17.894
_cell_length_c 19.845
_cell_angle_alpha 90.021
_cell_angle_beta 90.013
_cell_angle_gamma 89.977
_space_group_name_H-M_alt 'P 1'
_space_group_name_Hall 'P 1'
loop_
    _symmetry_equiv_pos_as_xyz
    x,y,z
loop_
    _atom_site_label
    _atom_site_type_symbol
    _atom_site_fract_x
    _atom_site_fract_y
    _atom_site_fract_z
    _atom_site_occupancy
    H0      H    0.18604   0.85953   0.54028   1.000
    H1      H    0.68573   0.86000   0.53832   1.000
    H2      H    0.00293   0.74392   0.56570   1.000
    H3      H    0.50252   0.74511   0.56575   1.000
    H4      H    0.15446   0.89306   0.42240   1.000
    H5      H    0.65345   0.89278   0.42047   1.000
    H6      H    0.04715   0.85082   0.37637   1.000
    H7      H    0.54582   0.85032   0.37530   1.000
    H8      H    0.47044   0.77537   0.44788   1.000
    H9      H    0.97147   0.77514   0.44793   1.000
    H10     H    0.18610   0.64075   0.96187   1.000
    H11     H    0.68586   0.63979   0.96158   1.000
    H12     H    0.00233   0.75463   0.93430   1.000
    H13     H    0.50267   0.75493   0.93430   1.000
    H14     H    0.15398   0.60785   0.07972   1.000
    H15     H    0.65365   0.60693   0.07940   1.000
    H16     H    0.04609   0.64964   0.12472   1.000
    H17     H    0.54606   0.64947   0.12459   1.000
    H18     H    0.47066   0.72461   0.05216   1.000
    H19     H    0.97038   0.72417   0.05214   1.000
    H20     H    0.06430   0.14017   0.03790   1.000
    H21     H    0.56430   0.14026   0.03812   1.000
    H22     H    0.24754   0.25484   0.06602   1.000
    H23     H    0.74763   0.25486   0.06591   1.000
    H24     H    0.09692   0.10728   0.92017   1.000
    H25     H    0.59663   0.10753   0.92026   1.000
    H26     H    0.20477   0.14949   0.87550   1.000
    H27     H    0.70437   0.14982   0.87536   1.000
    H28     H    0.27998   0.22442   0.94831   1.000
    H29     H    0.77977   0.22461   0.94800   1.000
    H30     H    0.06385   0.35941   0.46209   1.000
    H31     H    0.56492   0.36035   0.46184   1.000
    H32     H    0.24768   0.24580   0.43409   1.000
    H33     H    0.74780   0.24470   0.43400   1.000
    H34     H    0.09621   0.39234   0.57988   1.000
    H35     H    0.59750   0.39299   0.57960   1.000
    H36     H    0.20424   0.35070   0.62465   1.000
    H37     H    0.70512   0.35013   0.62450   1.000
    H38     H    0.27988   0.27629   0.55187   1.000
    H39     H    0.78018   0.27486   0.55179   1.000
    H40     H    0.31469   0.14175   0.46130   1.000
    H41     H    0.81448   0.13978   0.46164   1.000
    H42     H    0.49808   0.25630   0.43405   1.000
    H43     H    0.99757   0.25488   0.43416   1.000
    H44     H    0.34732   0.10783   0.57883   1.000
    H45     H    0.84684   0.10701   0.57940   1.000
    H46     H    0.45523   0.14949   0.62381   1.000
    H47     H    0.95444   0.14959   0.62454   1.000
    H48     H    0.02970   0.22464   0.55200   1.000
    H49     H    0.53053   0.22486   0.55155   1.000
    C50     C    0.15355   0.20029   0.05869   1.000
    C51     C    0.65362   0.20034   0.05875   1.000
    H52     H    0.31427   0.36002   0.03842   1.000
    H53     H    0.81436   0.35983   0.03813   1.000
    H54     H    0.49752   0.24500   0.06577   1.000
    H55     H    0.99771   0.24515   0.06590   1.000
    H56     H    0.34647   0.39281   0.92056   1.000
    H57     H    0.84679   0.39260   0.92034   1.000
    H58     H    0.45408   0.35030   0.87542   1.000
    H59     H    0.95458   0.35029   0.87549   1.000
    H60     H    0.02992   0.27544   0.94819   1.000
    H61     H    0.52951   0.27525   0.94790   1.000
    H62     H    0.43652   0.85994   0.96210   1.000
    H63     H    0.93572   0.85962   0.96200   1.000
    H64     H    0.25324   0.74511   0.93479   1.000
    H65     H    0.75239   0.74508   0.93407   1.000
    H66     H    0.40424   0.89307   0.07992   1.000
    H67     H    0.90336   0.89226   0.07986   1.000
    C68     C    0.46493   0.22494   0.46650   1.000
    H69     H    0.29653   0.85094   0.12498   1.000
    H70     H    0.79561   0.84996   0.12471   1.000
    H71     H    0.22112   0.77584   0.05254   1.000
    H72     H    0.72022   0.77523   0.05193   1.000
    H73     H    0.43594   0.64068   0.53778   1.000
    H74     H    0.93562   0.64020   0.53804   1.000
    H75     H    0.25224   0.75435   0.56636   1.000
    H76     H    0.75236   0.75505   0.56587   1.000
    H77     H    0.40324   0.60780   0.42006   1.000
    H78     H    0.90328   0.60768   0.42014   1.000
    H79     H    0.29508   0.64947   0.37565   1.000
    H80     H    0.79557   0.65020   0.37523   1.000
    H81     H    0.21966   0.72390   0.44867   1.000
    H82     H    0.72020   0.72502   0.44798   1.000
    C83     C    0.09682   0.79883   0.55972   1.000
    C84     C    0.59648   0.79975   0.55875   1.000
    C85     C    0.13945   0.84100   0.51914   1.000
    C86     C    0.63896   0.84146   0.51761   1.000
    C87     C    0.03626   0.77543   0.53362   1.000
    C88     C    0.53571   0.77630   0.53320   1.000
    C89     C    0.12168   0.85938   0.45344   1.000
    C90     C    0.62081   0.85939   0.45193   1.000
    C91     C    0.06131   0.83556   0.42755   1.000
    C92     C    0.56025   0.83547   0.42650   1.000
    C93     C    0.01877   0.79348   0.46763   1.000
    C94     C    0.51788   0.79381   0.46718   1.000
    C95     C    0.09655   0.70047   0.94136   1.000
    C96     C    0.59660   0.70015   0.94120   1.000
    C97     C    0.13923   0.65903   0.98255   1.000
    C98     C    0.63910   0.65835   0.98230   1.000
    C99     C    0.03566   0.72359   0.96680   1.000
    C100    C    0.53586   0.72364   0.96681   1.000
    C101    C    0.12116   0.64102   0.04823   1.000
    C102    C    0.62100   0.64039   0.04800   1.000
    C103    C    0.06047   0.66457   0.07353   1.000
    C104    C    0.56046   0.66435   0.07300   1.000
    C105    C    0.01790   0.70600   0.03288   1.000
    C106    C    0.51808   0.70612   0.03283   1.000
    C107    C    0.11116   0.15862   0.01730   1.000
    C108    C    0.61112   0.15873   0.01750   1.000
    C109    C    0.21442   0.22365   0.03337   1.000
    C110    C    0.71442   0.22372   0.03330   1.000
    C111    C    0.12950   0.14063   0.95176   1.000
    C112    C    0.62929   0.14083   0.95180   1.000
    C113    C    0.19018   0.16441   0.92664   1.000
    C114    C    0.68990   0.16466   0.92655   1.000
    C115    C    0.23245   0.20607   0.96740   1.000
    C116    C    0.73229   0.20623   0.96728   1.000
    C117    C    0.15339   0.29973   0.44138   1.000
    C118    C    0.65399   0.29972   0.44119   1.000
    C119    C    0.11078   0.34117   0.48266   1.000
    C120    C    0.61168   0.34161   0.48244   1.000
    C121    C    0.21436   0.27672   0.46675   1.000
    C122    C    0.71474   0.27603   0.46661   1.000
    C123    C    0.12898   0.35920   0.54831   1.000
    C124    C    0.63000   0.35947   0.54810   1.000
    C125    C    0.18976   0.33573   0.57349   1.000
    C126    C    0.69055   0.33532   0.57333   1.000
    C127    C    0.23227   0.29436   0.53273   1.000
    C128    C    0.73274   0.29349   0.53260   1.000
    C129    C    0.40401   0.20193   0.44100   1.000
    C130    C    0.90366   0.20014   0.44119   1.000
    C131    C    0.36157   0.15998   0.48201   1.000
    C132    C    0.86124   0.15836   0.48233   1.000
    C133    C    0.96442   0.22364   0.46671   1.000
    C134    C    0.37993   0.14139   0.54749   1.000
    C135    C    0.87943   0.14044   0.54800   1.000
    C136    C    0.44064   0.16487   0.57279   1.000
    C137    C    0.93998   0.16442   0.57335   1.000
    C138    C    0.48297   0.20675   0.53231   1.000
    C139    C    0.98229   0.20615   0.53272   1.000
    C140    C    0.40355   0.29972   0.05881   1.000
    C141    C    0.90368   0.29971   0.05878   1.000
    C142    C    0.36103   0.34147   0.01769   1.000
    C143    C    0.86120   0.34135   0.01753   1.000
    C144    C    0.46430   0.27623   0.03324   1.000
    C145    C    0.96453   0.27633   0.03330   1.000
    C146    C    0.37913   0.35939   0.95200   1.000
    C147    C    0.87943   0.35927   0.95188   1.000
    C148    C    0.43968   0.33544   0.92662   1.000
    C149    C    0.94008   0.33544   0.92666   1.000
    C150    C    0.48208   0.29372   0.96721   1.000
    C151    C    0.98244   0.29383   0.96738   1.000
    C152    C    0.34725   0.79968   0.94176   1.000
    C153    C    0.84640   0.79958   0.94130   1.000
    C154    C    0.38974   0.84149   0.98285   1.000
    C155    C    0.88890   0.84114   0.98259   1.000
    C156    C    0.28645   0.77638   0.96730   1.000
    C157    C    0.78559   0.77619   0.96670   1.000
    C158    C    0.37159   0.85962   0.04849   1.000
    C159    C    0.87070   0.85900   0.04829   1.000
    C160    C    0.31099   0.83588   0.07384   1.000
    C161    C    0.81008   0.83516   0.07350   1.000
    C162    C    0.26860   0.79413   0.03326   1.000
    C163    C    0.76771   0.79363   0.03274   1.000
    C164    C    0.34645   0.70032   0.55878   1.000
    C165    C    0.84635   0.70041   0.55869   1.000
    C166    C    0.38896   0.65892   0.51730   1.000
    C167    C    0.88883   0.65880   0.51741   1.000
    C168    C    0.28542   0.72337   0.53360   1.000
    C169    C    0.78555   0.72391   0.53324   1.000
    C170    C    0.37056   0.64093   0.45175   1.000
    C171    C    0.87064   0.64100   0.45170   1.000
    C172    C    0.30971   0.66442   0.42677   1.000
    C173    C    0.81004   0.66495   0.42640   1.000
    C174    C    0.26732   0.70578   0.46767   1.000
    C175    C    0.76768   0.70654   0.46719   1.000
loop_
    _geom_bond_atom_site_label_1
    _geom_bond_atom_site_label_2
    _geom_bond_distance
    _geom_bond_site_symmetry_2
    _ccdc_geom_bond_type
    C107   H20       1.08968      .   S
    C107   C50       1.40567      .   S
    C107   C111      1.39093  1_554   S
    C108   H21       1.08906      .   S
    C108   C51       1.40471      .   S
    C108   C112      1.39260  1_554   S
    C143   H53       1.08911      .   S
    C143   C141      1.40479      .   S
    C143   C147      1.39235  1_554   S
    C142   H52       1.08911      .   S
    C142   C140      1.40469      .   S
    C142   C146      1.39238  1_554   S
    C163   H72       1.09042      .   S
    C163   C161      1.39687      .   S
    C163   C157      1.39549  1_554   S
    C106   H18       1.09037      .   S
    C106   C104      1.39238      .   S
    C106   C100      1.39523  1_554   S
    C105   H19       1.08999  1_455   S
    C105   C103      1.39686      .   S
    C105   C99       1.39650  1_554   S
    C144   C140      1.40159      .   S
    C144   H54       1.08927      .   S
    C144   C150      1.39526  1_554   S
    C162   H71       1.09042      .   S
    C162   C160      1.39699      .   S
    C162   C156      1.39513  1_554   S
    C110   C51       1.40161      .   S
    C110   H23       1.08922      .   S
    C110   C116      1.39518  1_554   S
    C145   C141      1.40205      .   S
    C145   H55       1.08908      .   S
    C145   C151      1.39397  1_554   S
    C109   C50       1.40164      .   S
    C109   H22       1.08919      .   S
    C109   C115      1.39554  1_554   S
    C102   C104      1.39625      .   S
    C102   H15       1.09028      .   S
    C102   C98       1.39275  1_554   S
    C101   C103      1.39906      .   S
    C101   H14       1.09049      .   S
    C101   C97       1.39237  1_554   S
    C159   C161      1.39902      .   S
    C159   H67       1.09044      .   S
    C159   C155      1.39253  1_554   S
    C158   C160      1.39912      .   S
    C158   H66       1.09055      .   S
    C158   C154      1.39234  1_554   S
    C104   H17       1.09794      .   S
    C161   H70       1.09072      .   S
    C103   H16       1.09066      .   S
    C160   H69       1.09045      .   S
    H80    C173      1.08968      .   S
    H7     C92       1.09058      .   S
    H79    C172      1.09053      .   S
    H6     C91       1.09058      .   S
    H77    C170      1.09056      .   S
    H78    C171      1.09051      .   S
    H5     C90       1.09052      .   S
    H4     C89       1.09046      .   S
    C173   C171      1.39941      .   S
    C173   C175      1.39734      .   S
    C92    C90       1.39956      .   S
    C92    C94       1.39760      .   S
    C172   C170      1.39907      .   S
    C172   C174      1.39688      .   S
    C91    C89       1.39902      .   S
    C91    C93       1.39697      .   S
    H33    C122      1.08911      .   S
    H42    C68       1.08918      .   S
    H32    C121      1.08912      .   S
    H43    C133      1.08919      .   S
    C129   C68       1.40165      .   S
    C129   C131      1.40495      .   S
    C118   C122      1.40156      .   S
    C118   C120      1.40473      .   S
    C130   C133      1.40147      .   S
    C130   C132      1.40469      .   S
    C117   C121      1.40155      .   S
    C117   C119      1.40473      .   S
    H8     C94       1.09042      .   S
    H9     C93       1.09007  1_655   S
    H82    C175      1.09040      .   S
    H81    C174      1.09036      .   S
    C171   C167      1.39233      .   S
    C170   C166      1.39130      .   S
    C90    C86       1.39227      .   S
    C89    C85       1.39253      .   S
    H40    C131      1.08942      .   S
    H41    C132      1.08907      .   S
    H31    C120      1.08905      .   S
    H30    C119      1.08905      .   S
    C68    C138      1.39518      .   S
    C122   C128      1.39519      .   S
    C133   C139      1.39515      .   S
    C121   C127      1.39519      .   S
    C94    C88       1.39517      .   S
    C175   C169      1.39529      .   S
    C93    C87       1.39504      .   S
    C174   C168      1.39513      .   S
    C131   C134      1.39243      .   S
    C132   C135      1.39227      .   S
    C120   C124      1.39240      .   S
    C119   C123      1.39228      .   S
    C166   H73       1.08947      .   S
    C166   C164      1.40532      .   S
    C167   H74       1.08907      .   S
    C167   C165      1.40478      .   S
    C86    H1        1.08908      .   S
    C86    C84       1.40473      .   S
    C85    H0        1.08901      .   S
    C85    C83       1.40463      .   S
    C138   H49       1.09040      .   S
    C138   C136      1.39690      .   S
    C128   H39       1.09041      .   S
    C128   C126      1.39692      .   S
    C139   H48       1.09000  1_655   S
    C139   C137      1.39693      .   S
    C127   H38       1.09039      .   S
    C127   C125      1.39685      .   S
    C88    C84       1.40156      .   S
    C88    H3        1.08924      .   S
    C169   C165      1.40156      .   S
    C169   H76       1.08915      .   S
    C168   C164      1.40150      .   S
    C168   H75       1.08910      .   S
    C87    C83       1.40170      .   S
    C87    H2        1.08840      .   S
    C134   C136      1.39909      .   S
    C134   H44       1.09050      .   S
    C135   C137      1.39912      .   S
    C135   H45       1.08980      .   S
    C124   C126      1.39906      .   S
    C124   H35       1.09006      .   S
    C123   C125      1.39909      .   S
    C123   H34       1.09048      .   S
    C136   H46       1.09049      .   S
    C126   H37       1.09049      .   S
    C137   H47       1.09048      .   S
    C125   H36       1.09056      .   S
    H27    C114      1.09045      .   S
    H58    C148      1.09057      .   S
    H59    C149      1.09058      .   S
    H26    C113      1.09065      .   S
    H24    C111      1.09047      .   S
    H25    C112      1.09048      .   S
    H57    C147      1.09051      .   S
    H56    C146      1.09049      .   S
    C114   C112      1.39907      .   S
    C114   C116      1.39698      .   S
    C148   C146      1.39909      .   S
    C148   C150      1.39687      .   S
    C113   C111      1.39907      .   S
    C113   C115      1.39670      .   S
    C149   C147      1.39909      .   S
    C149   C151      1.39691      .   S
    H65    C157      1.08908      .   S
    H12    C99       1.08850      .   S
    H13    C100      1.08918      .   S
    H64    C156      1.08922      .   S
    C96    C100      1.40170      .   S
    C96    C98       1.40481      .   S
    C153   C157      1.40147      .   S
    C153   C155      1.40471      .   S
    C95    C99       1.40110      .   S
    C95    C97       1.40475      .   S
    C152   C156      1.40159      .   S
    C152   C154      1.40473      .   S
    H61    C150      1.09036      .   S
    H29    C116      1.09090      .   S
    H60    C151      1.09001  1_455   S
    H28    C115      1.09026      .   S
    H11    C98       1.08895      .   S
    H10    C97       1.08907      .   S
    H63    C155      1.08904      .   S
    H62    C154      1.08937      .   S
