# CIF file generated by openbabel 2.4.90, see http://openbabel.sf.net
data_I
_chemical_name_common ''
_cell_length_a 20.365
_cell_length_b 17.894
_cell_length_c 19.845
_cell_angle_alpha 90.021
_cell_angle_beta 90.013
_cell_angle_gamma 89.977
_space_group_name_H-M_alt 'P 1'
_space_group_name_Hall 'P 1'
loop_
    _symmetry_equiv_pos_as_xyz
    x,y,z
loop_
    _atom_site_label
    _atom_site_type_symbol
    _atom_site_fract_x
    _atom_site_fract_y
    _atom_site_fract_z
    _atom_site_occupancy
    La0     La   0.98303   0.74962   0.75011   1.000
    La1     La   0.26649   0.25070   0.24997   1.000
    La2     La   0.76700   0.25000   0.24995   1.000
    La3     La   0.01690   0.24991   0.25006   1.000
    La4     La   0.51703   0.25038   0.25001   1.000
    La5     La   0.23414   0.74978   0.75075   1.000
    La6     La   0.73314   0.74998   0.74999   1.000
    H7      H    0.06366   0.94767   0.68700   1.000
    H8      H    0.56360   0.94781   0.68790   1.000
    H9      H    0.39498   0.93966   0.51042   1.000
    H10     H    0.89513   0.93921   0.51016   1.000
    H11     H    0.08726   0.01268   0.58059   1.000
    H12     H    0.58725   0.01280   0.58078   1.000
    H13     H    0.37996   0.87885   0.62126   1.000
    H14     H    0.88016   0.87838   0.62100   1.000
    H15     H    0.06352   0.55210   0.81260   1.000
    H16     H    0.56348   0.55192   0.81180   1.000
    H17     H    0.39506   0.56051   0.98941   1.000
    H18     H    0.89480   0.56014   0.98996   1.000
    H19     H    0.08724   0.48729   0.91985   1.000
    La20    La   0.48324   0.75001   0.74997   1.000
    H21     H    0.58721   0.48700   0.91896   1.000
    H22     H    0.37996   0.62124   0.87852   1.000
    H23     H    0.87974   0.62085   0.87906   1.000
    H24     H    0.18684   0.05246   0.18792   1.000
    H25     H    0.68648   0.05210   0.18786   1.000
    H26     H    0.35636   0.06103   0.00000   1.000
    H27     H    0.85506   0.06012   0.00000   1.000
    H28     H    0.16378   0.98763   0.08053   1.000
    H29     H    0.66275   0.98716   0.08068   1.000
    H30     H    0.37078   0.12166   0.12248   1.000
    H31     H    0.87013   0.12093   0.12129   1.000
    H32     H    0.18410   0.44855   0.31360   1.000
    H33     H    0.68658   0.44817   0.31197   1.000
    H34     H    0.35530   0.44057   0.48850   1.000
    H35     H    0.85505   0.43966   0.48960   1.000
    H36     H    0.16174   0.51306   0.42132   1.000
    H37     H    0.66290   0.51318   0.41913   1.000
    H38     H    0.36899   0.38027   0.37720   1.000
    H39     H    0.87010   0.37883   0.37872   1.000
    H40     H    0.43595   0.05283   0.31256   1.000
    H41     H    0.93653   0.05192   0.31202   1.000
    H42     H    0.10496   0.06025   0.48965   1.000
    H43     H    0.60506   0.06011   0.48900   1.000
    H44     H    0.41241   0.98775   0.41966   1.000
    H45     H    0.91286   0.98684   0.41910   1.000
    H46     H    0.12000   0.12114   0.37886   1.000
    H47     H    0.61993   0.12108   0.37880   1.000
    H48     H    0.43670   0.44851   0.18770   1.000
    H49     H    0.93645   0.44781   0.18826   1.000
    C50     C    0.61580   0.71850   0.87051   1.000
    C51     C    0.22174   0.05115   0.14651   1.000
    H52     H    0.10508   0.44001   0.00000   1.000
    H53     H    0.60495   0.43938   0.00000   1.000
    H54     H    0.41299   0.51339   0.08055   1.000
    H55     H    0.91268   0.51280   0.08114   1.000
    H56     H    0.12019   0.37914   0.12168   1.000
    H57     H    0.62003   0.37870   0.12088   1.000
    H58     H    0.31608   0.94814   0.81298   1.000
    H59     H    0.81350   0.94788   0.81209   1.000
    H60     H    0.14638   0.94059   0.98934   1.000
    H61     H    0.64498   0.93962   0.98960   1.000
    H62     H    0.33916   0.01333   0.92022   1.000
    H63     H    0.83722   0.01276   0.91931   1.000
    C64     C    0.06559   0.05609   0.45279   1.000
    C65     C    0.56554   0.05620   0.45287   1.000
    C66     C    0.45934   0.01614   0.41425   1.000
    C67     C    0.95968   0.01549   0.41384   1.000
    H68     H    0.13197   0.87959   0.87846   1.000
    H69     H    0.62990   0.87889   0.87868   1.000
    H70     H    0.31609   0.55186   0.68700   1.000
    H71     H    0.81354   0.55202   0.68788   1.000
    H72     H    0.14490   0.55961   0.51287   1.000
    H73     H    0.64506   0.56055   0.51026   1.000
    H74     H    0.33852   0.48733   0.58009   1.000
    H75     H    0.83728   0.48719   0.58065   1.000
    H76     H    0.13117   0.61997   0.62415   1.000
    H77     H    0.62995   0.62121   0.62120   1.000
    C78     C    0.02899   0.94899   0.64608   1.000
    C79     C    0.52891   0.94922   0.64631   1.000
    C80     C    0.49392   0.98280   0.53201   1.000
    C81     C    0.99402   0.98248   0.53177   1.000
    C82     C    0.43438   0.94380   0.54726   1.000
    C83     C    0.93453   0.94338   0.54700   1.000
    C84     C    0.04044   0.98403   0.58588   1.000
    C85     C    0.54039   0.98423   0.58609   1.000
    C86     C    0.42418   0.90947   0.60804   1.000
    C87     C    0.92436   0.90904   0.60778   1.000
    C88     C    0.11559   0.78004   0.63040   1.000
    C89     C    0.61574   0.78143   0.62947   1.000
    C90     C    0.02882   0.55071   0.85423   1.000
    C91     C    0.52884   0.55062   0.85344   1.000
    C92     C    0.49398   0.51727   0.96780   1.000
    C93     C    0.99388   0.51724   0.96852   1.000
    C94     C    0.43444   0.55633   0.95257   1.000
    C95     C    0.93426   0.55610   0.95319   1.000
    C96     C    0.04035   0.51578   0.91448   1.000
    C97     C    0.54038   0.51565   0.91367   1.000
    C98     C    0.42419   0.59059   0.89176   1.000
    C99     C    0.92403   0.59035   0.89230   1.000
    C100    C    0.11573   0.71880   0.87063   1.000
    O101    O    0.71145   0.87517   0.78364   1.000
    O102    O    0.32348   0.75223   0.83175   1.000
    O103    O    0.82265   0.75313   0.83090   1.000
    O104    O    0.42531   0.79396   0.85277   1.000
    O105    O    0.92477   0.79368   0.85266   1.000
    O106    O    0.21421   0.62414   0.71777   1.000
    O107    O    0.71148   0.62480   0.71630   1.000
    O108    O    0.32297   0.74705   0.66912   1.000
    C109    C    0.72115   0.05069   0.14626   1.000
    C110    C    0.25731   0.01784   0.03235   1.000
    C111    C    0.75607   0.01713   0.03190   1.000
    C112    C    0.31676   0.05682   0.04801   1.000
    C113    C    0.81564   0.05607   0.04721   1.000
    C114    C    0.21058   0.01623   0.08617   1.000
    C115    C    0.70962   0.01570   0.08601   1.000
    C116    C    0.32664   0.09104   0.10893   1.000
    C117    C    0.82588   0.09037   0.10803   1.000
    C118    C    0.13415   0.21865   0.12936   1.000
    C119    C    0.63433   0.21864   0.12948   1.000
    C120    C    0.21937   0.44997   0.35469   1.000
    C121    C    0.72124   0.44949   0.35361   1.000
    C122    C    0.25579   0.48310   0.46862   1.000
    C123    C    0.75614   0.48293   0.46798   1.000
    C124    C    0.31532   0.44456   0.45231   1.000
    C125    C    0.81566   0.44384   0.45275   1.000
    C126    C    0.20860   0.48468   0.41521   1.000
    C127    C    0.70973   0.48451   0.41380   1.000
    C128    C    0.32481   0.41056   0.39124   1.000
    C129    C    0.82589   0.40952   0.39194   1.000
    C130    C    0.13410   0.28130   0.37068   1.000
    C131    C    0.63457   0.28146   0.37040   1.000
    C132    C    0.47075   0.05123   0.35406   1.000
    C133    C    0.97118   0.05055   0.35365   1.000
    C134    C    0.00608   0.01700   0.46797   1.000
    C135    C    0.50594   0.01737   0.46822   1.000
    C136    C    0.07579   0.09046   0.39204   1.000
    C137    C    0.57567   0.09058   0.39210   1.000
    C138    C    0.38456   0.22094   0.37049   1.000
    C139    C    0.88436   0.21852   0.37049   1.000
    C140    C    0.47130   0.44967   0.14606   1.000
    C141    C    0.97112   0.44925   0.14660   1.000
    C142    C    0.00600   0.48285   0.03237   1.000
    C143    C    0.50612   0.48286   0.03165   1.000
    C144    C    0.06563   0.44399   0.04764   1.000
    C145    C    0.56561   0.44370   0.04686   1.000
    C146    C    0.45977   0.48462   0.08581   1.000
    C147    C    0.95957   0.48427   0.08645   1.000
    C148    C    0.07589   0.40965   0.10841   1.000
    C149    C    0.57585   0.40945   0.10768   1.000
    C150    C    0.38436   0.28144   0.12955   1.000
    C151    C    0.88436   0.28139   0.12947   1.000
    C152    C    0.28115   0.94970   0.85435   1.000
    C153    C    0.77884   0.94924   0.85371   1.000
    C154    C    0.24556   0.98339   0.96842   1.000
    C155    C    0.74393   0.98270   0.96806   1.000
    C156    C    0.18604   0.94452   0.95280   1.000
    C157    C    0.68438   0.94373   0.95278   1.000
    C158    C    0.29231   0.98479   0.91462   1.000
    C159    C    0.79037   0.98419   0.91397   1.000
    C160    C    0.17616   0.91014   0.89197   1.000
    C161    C    0.67414   0.90948   0.89190   1.000
    C162    C    0.36645   0.78112   0.87108   1.000
    C163    C    0.86569   0.78136   0.87056   1.000
    C164    C    0.28083   0.55038   0.64670   1.000
    C165    C    0.77888   0.55071   0.64624   1.000
    C166    C    0.24443   0.51715   0.53278   1.000
    C167    C    0.74401   0.51735   0.53185   1.000
    C168    C    0.18488   0.55566   0.54907   1.000
    C169    C    0.68445   0.55637   0.54710   1.000
    C170    C    0.29163   0.51564   0.58600   1.000
    C171    C    0.79043   0.51578   0.58597   1.000
    C172    C    0.17536   0.58968   0.61012   1.000
    C173    C    0.67420   0.59060   0.60795   1.000
    C174    C    0.36592   0.71870   0.62944   1.000
    C175    C    0.86564   0.71859   0.62945   1.000
    N176    N    0.47147   0.91095   0.65736   1.000
    N177    N    0.97163   0.91062   0.65713   1.000
    N178    N    0.47144   0.58902   0.84242   1.000
    N179    N    0.97135   0.58887   0.84309   1.000
    N180    N    0.27908   0.08947   0.15796   1.000
    N181    N    0.77859   0.08895   0.15734   1.000
    N182    N    0.27676   0.41193   0.34267   1.000
    N183    N    0.77863   0.41107   0.34259   1.000
    N184    N    0.02856   0.08891   0.34265   1.000
    N185    N    0.52824   0.08934   0.34291   1.000
    N186    N    0.02859   0.41104   0.15771   1.000
    N187    N    0.52864   0.41116   0.15706   1.000
    N188    N    0.22378   0.91141   0.84299   1.000
    N189    N    0.72141   0.91096   0.84260   1.000
    N190    N    0.22340   0.58836   0.65868   1.000
    N191    N    0.72145   0.58904   0.65730   1.000
    O192    O    0.46152   0.87516   0.71632   1.000
    O193    O    0.96179   0.87477   0.71606   1.000
    O194    O    0.07251   0.75041   0.66920   1.000
    O195    O    0.57269   0.75317   0.66900   1.000
    O196    O    0.17425   0.79326   0.64932   1.000
    O197    O    0.67482   0.79371   0.64741   1.000
    O198    O    0.46147   0.62483   0.78347   1.000
    O199    O    0.96144   0.62466   0.78412   1.000
    O200    O    0.07260   0.74697   0.83104   1.000
    O201    O    0.57271   0.74677   0.83093   1.000
    O202    O    0.17482   0.70654   0.85269   1.000
    O203    O    0.67489   0.70625   0.85250   1.000
    O204    O    0.28864   0.12523   0.21702   1.000
    O205    O    0.78855   0.12479   0.21630   1.000
    O206    O    0.17716   0.24696   0.16900   1.000
    O207    O    0.67740   0.24685   0.16911   1.000
    O208    O    0.07512   0.20621   0.14730   1.000
    O209    O    0.57527   0.20630   0.14741   1.000
    O210    O    0.28588   0.37619   0.28350   1.000
    O211    O    0.78855   0.37518   0.28365   1.000
    O212    O    0.17712   0.25294   0.33109   1.000
    O213    O    0.67752   0.25308   0.33082   1.000
    O214    O    0.07505   0.29375   0.35268   1.000
    O215    O    0.57548   0.29387   0.35262   1.000
    O216    O    0.03848   0.12479   0.28374   1.000
    O217    O    0.53809   0.12519   0.28397   1.000
    O218    O    0.42750   0.24955   0.33098   1.000
    O219    O    0.92738   0.24680   0.33089   1.000
    O220    O    0.32541   0.20893   0.35264   1.000
    O221    O    0.82527   0.20624   0.35256   1.000
    O222    O    0.03856   0.37513   0.21660   1.000
    O223    O    0.53856   0.37536   0.21602   1.000
    O224    O    0.42744   0.25313   0.16910   1.000
    O225    O    0.92740   0.25317   0.16910   1.000
    O226    O    0.32528   0.29375   0.14751   1.000
    O227    O    0.82526   0.29371   0.14735   1.000
    O228    O    0.21421   0.87537   0.78409   1.000
    O229    O    0.82259   0.74683   0.66909   1.000
    O230    O    0.42500   0.70623   0.64731   1.000
    O231    O    0.92470   0.70617   0.64739   1.000
loop_
    _geom_bond_atom_site_label_1
    _geom_bond_atom_site_label_2
    _geom_bond_distance
    _geom_bond_site_symmetry_2
    _ccdc_geom_bond_type
    H26    C112      1.25066      .   S
    H53    C145      1.23000      .   S
    H52    C144      1.24279      .   S
    H27    C113      1.23610      .   S
    C143   C145      1.43159      .   S
    C143   C146      1.43096      .   S
    C143   C92       1.43035  1_554   S
    C111   C113      1.43175      .   S
    C111   C115      1.43141      .   S
    C111   C155      1.43007  1_544   S
    C110   C112      1.43159      .   S
    C110   C114      1.43096      .   S
    C110   C154      1.43048  1_544   S
    C142   C144      1.43159      .   S
    C142   C147      1.43076  1_455   S
    C142   C93       1.43021  1_454   S
    C145   C149      1.36970      .   S
    C113   C117      1.36979      .   S
    C144   C148      1.36962      .   S
    C112   C116      1.36978      .   S
    H28    C114      1.08777  1_565   S
    H54    C146      1.08765      .   S
    H29    C115      1.08783  1_565   S
    H55    C147      1.08765      .   S
    C146   C140      1.36969      .   S
    C115   C109      1.36973      .   S
    C114   C51       1.36942      .   S
    C147   C141      1.36867      .   S
    C149   H57       1.08656      .   S
    C149   N187      1.37332      .   S
    C117   H31       1.08660      .   S
    C117   N181      1.37331      .   S
    C148   H56       1.08662      .   S
    C148   N186      1.37334      .   S
    C116   H30       1.08657      .   S
    C116   N180      1.37336      .   S
    C118   O208      1.27371      .   S
    C118   O206      1.28155      .   S
    C151   O227      1.27391      .   S
    C151   O225      1.28123      .   S
    C119   O209      1.27384      .   S
    C119   O207      1.28156      .   S
    C150   O226      1.27398      .   S
    C150   O224      1.28151      .   S
    C140   N187      1.37319      .   S
    C140   H48       1.08630      .   S
    C109   N181      1.37323      .   S
    C109   H25       1.08677      .   S
    C51    N180      1.37324      .   S
    C51    H24       1.08682      .   S
    C141   N186      1.37304  1_655   S
    C141   H49       1.08766      .   S
    O208   La3       2.48493      .   S
    O227   La2       2.48354      .   S
    O209   La4       2.48470      .   S
    O226   La1       2.48278      .   S
    N187   O223      1.34931      .   S
    N181   O205      1.34940      .   S
    N186   O222      1.34913      .   S
    N180   O204      1.34926      .   S
    O206   La1       2.42786      .   S
    O225   La3       2.43002  1_655   S
    O224   La4       2.43058      .   S
    O207   La2       2.43001      .   S
    O223   La4       2.37699      .   S
    O205   La2       2.37853      .   S
    O222   La3       2.37877      .   S
    O204   La1       2.38107      .   S
    La2    O211      2.37838      .   S
    La2    O213      2.42905      .   S
    La2    O221      2.48339      .   S
    La1    O210      2.37505      .   S
    La1    O212      2.43035      .   S
    La1    O220      2.47975      .   S
    La4    O217      2.37850      .   S
    La4    O218      2.43063      .   S
    La4    O215      2.48344      .   S
    La3    O216      2.37747      .   S
    La3    O219      2.42913  1_455   S
    La3    O214      2.48275      .   S
    O210   N182      1.34974      .   S
    O211   N183      1.34936      .   S
    O216   N184      1.34932      .   S
    O217   N185      1.34933      .   S
    H33    C121      1.08684      .   S
    H41    C133      1.08672      .   S
    H40    C132      1.08680      .   S
    H32    C120      1.08677      .   S
    O213   C131      1.28045      .   S
    O219   C139      1.28156      .   S
    O218   C138      1.28156      .   S
    O212   C130      1.28144      .   S
    N183   C121      1.37321      .   S
    N183   C129      1.37325      .   S
    N184   C133      1.37292  1_455   S
    N184   C136      1.37342      .   S
    N182   C120      1.37315      .   S
    N182   C128      1.37348      .   S
    N185   C132      1.37317      .   S
    N185   C137      1.37325      .   S
    O221   C139      1.27389      .   S
    O215   C131      1.27337      .   S
    O220   C138      1.27384      .   S
    O214   C130      1.27397      .   S
    C121   C127      1.36888      .   S
    C133   C67       1.36971      .   S
    C132   C66       1.36956      .   S
    C120   C126      1.36965      .   S
    H38    C128      1.08659      .   S
    H39    C129      1.08661      .   S
    H47    C137      1.08657      .   S
    H46    C136      1.08660      .   S
    C128   C124      1.36959      .   S
    C129   C125      1.36975      .   S
    C136   C64       1.36956      .   S
    C137   C65       1.36978      .   S
    C127   H37       1.08776      .   S
    C127   C123      1.43171      .   S
    C67    H45       1.08783  1_545   S
    C67    C134      1.43070  1_655   S
    C66    H44       1.08780  1_545   S
    C66    C135      1.43109      .   S
    C126   H36       1.08763      .   S
    C126   C122      1.43092      .   S
    C124   C122      1.43151      .   S
    C124   H34       1.08789      .   S
    C125   C123      1.43162      .   S
    C125   H35       1.08789      .   S
    C64    C134      1.43169      .   S
    C64    H42       1.08784      .   S
    C65    C135      1.43163      .   S
    C65    H43       1.08003      .   S
    C134   C81       1.43028  1_445   S
    C123   C167      1.43050      .   S
    C135   C80       1.43037  1_545   S
    C122   C166      1.43016      .   S
    H10    C83       1.08799      .   S
    H73    C169      1.08785      .   S
    H9     C82       1.08792      .   S
    H72    C168      1.08792      .   S
    C81    C83       1.43168      .   S
    C81    C84       1.43078  1_655   S
    C167   C169      1.43160      .   S
    C167   C171      1.43092      .   S
    C80    C82       1.43169      .   S
    C80    C85       1.43101      .   S
    C166   C168      1.43156      .   S
    C166   C170      1.42816      .   S
    C83    C87       1.36971      .   S
    C169   C173      1.36983      .   S
    C82    C86       1.36970      .   S
    C168   C172      1.36950      .   S
    H74    C170      1.08723      .   S
    H11    C84       1.08779  1_545   S
    H75    C171      1.08768      .   S
    H12    C85       1.08783  1_545   S
    C84    C78       1.36949      .   S
    C171   C165      1.36966      .   S
    C170   C164      1.37305      .   S
    C85    C79       1.36977      .   S
    C87    H14       1.08657      .   S
    C87    N177      1.37336      .   S
    C173   H77       1.08660      .   S
    C173   N191      1.37318      .   S
    C86    H13       1.08656      .   S
    C86    N176      1.37319      .   S
    C172   H76       1.08668      .   S
    C172   N190      1.37328      .   S
    C174   O230      1.27373      .   S
    C174   O108      1.28150      .   S
    C175   O231      1.27371      .   S
    C175   O229      1.28160      .   S
    C89    O197      1.27379      .   S
    C89    O195      1.28091      .   S
    C88    O196      1.27442      .   S
    C88    O194      1.28249      .   S
    C78    N177      1.37285  1_455   S
    C78    H7        1.07629      .   S
    C165   N191      1.37321      .   S
    C165   H71       1.08683      .   S
    C79    N176      1.37328      .   S
    C79    H8        1.08668      .   S
    C164   N190      1.37316      .   S
    C164   H70       1.07505      .   S
    O230   La20      2.48385      .   S
    O231   La0       2.48390      .   S
    O197   La6       2.48329      .   S
    O196   La5       2.47864      .   S
    N177   O193      1.34916      .   S
    N191   O107      1.34947      .   S
    N176   O192      1.34942      .   S
    N190   O106      1.34888      .   S
    O195   La20      2.43006      .   S
    O229   La6       2.42897      .   S
    O108   La5       2.42916      .   S
    O194   La0       2.42898  1_455   S
    O193   La0       2.37887      .   S
    O107   La6       2.37881      .   S
    O192   La20      2.37844      .   S
    O106   La5       2.37632      .   S
    La20   O198      2.37868      .   S
    La20   O201      2.42978      .   S
    La20   O104      2.48422      .   S
    La6    O101      2.37852      .   S
    La6    O103      2.42958      .   S
    La6    O203      2.48221      .   S
    La0    O199      2.37710      .   S
    La0    O200      2.43058  1_655   S
    La0    O105      2.48401      .   S
    La5    O228      2.37724      .   S
    La5    O102      2.42797      .   S
    La5    O202      2.48059      .   S
    O198   N178      1.34931      .   S
    O101   N189      1.34900      .   S
    O228   N188      1.34896      .   S
    O199   N179      1.34932      .   S
    H16    C91       1.08689      .   S
    H59    C153      1.08689      .   S
    H15    C90       1.08754      .   S
    H58    C152      1.08683      .   S
    O103   C163      1.28168      .   S
    O201   C50       1.28157      .   S
    O200   C100      1.28147      .   S
    O102   C162      1.28144      .   S
    N178   C91       1.37322      .   S
    N178   C98       1.37327      .   S
    N189   C153      1.37330      .   S
    N189   C161      1.37298      .   S
    N188   C152      1.37320      .   S
    N188   C160      1.37333      .   S
    N179   C90       1.37281  1_655   S
    N179   C99       1.37237      .   S
    O203   C50       1.27419      .   S
    O105   C163      1.27381      .   S
    O202   C100      1.27400      .   S
    O104   C162      1.27348      .   S
    C91    C97       1.36962      .   S
    C153   C159      1.36962      .   S
    C90    C96       1.36955      .   S
    C152   C158      1.36971      .   S
    H68    C160      1.08660      .   S
    H22    C98       1.08659      .   S
    H69    C161      1.08641      .   S
    H23    C99       1.08628      .   S
    C98    C94       1.36973      .   S
    C161   C157      1.37055      .   S
    C160   C156      1.36959      .   S
    C99    C95       1.37094      .   S
    C97    H21       1.08766      .   S
    C97    C92       1.43099      .   S
    C159   H63       1.08783  1_565   S
    C159   C155      1.43099      .   S
    C96    H19       1.08763      .   S
    C96    C93       1.43061  1_455   S
    C158   H62       1.08782  1_565   S
    C158   C154      1.43096      .   S
    C94    C92       1.43160      .   S
    C94    H17       1.08795      .   S
    C157   C155      1.43162      .   S
    C157   H61       1.08792      .   S
    C156   C154      1.43152      .   S
    C156   H60       1.08785      .   S
    C95    C93       1.43160      .   S
    C95    H18       1.08792      .   S
