# CIF file generated by openbabel 2.4.90, see http://openbabel.sf.net
data_I
_chemical_name_common ''
_cell_length_a 20.365
_cell_length_b 17.894
_cell_length_c 19.845
_cell_angle_alpha 90.021
_cell_angle_beta 90.013
_cell_angle_gamma 89.977
_space_group_name_H-M_alt 'P 1'
_space_group_name_Hall 'P 1'
loop_
    _symmetry_equiv_pos_as_xyz
    x,y,z
loop_
    _atom_site_label
    _atom_site_type_symbol
    _atom_site_fract_x
    _atom_site_fract_y
    _atom_site_fract_z
    _atom_site_occupancy
    La0     La   0.98303   0.74962   0.75011   1.000
    La1     La   0.26649   0.25070   0.24997   1.000
    La2     La   0.76700   0.25000   0.24995   1.000
    La3     La   0.01690   0.24991   0.25006   1.000
    La4     La   0.51703   0.25038   0.25001   1.000
    La5     La   0.23414   0.74978   0.75075   1.000
    La6     La   0.73314   0.74998   0.74999   1.000
    La7     La   0.48324   0.75001   0.74997   1.000
