# CIF file generated by openbabel 2.4.90, see http://openbabel.sf.net
data_I
_chemical_name_common ''
_cell_length_a 20.365
_cell_length_b 17.894
_cell_length_c 19.845
_cell_angle_alpha 90.021
_cell_angle_beta 90.013
_cell_angle_gamma 89.977
_space_group_name_H-M_alt 'P 1'
_space_group_name_Hall 'P 1'
loop_
    _symmetry_equiv_pos_as_xyz
    x,y,z
loop_
    _atom_site_label
    _atom_site_type_symbol
    _atom_site_fract_x
    _atom_site_fract_y
    _atom_site_fract_z
    _atom_site_occupancy
    C0      C    0.61580   0.71850   0.87051   1.000
    C1      C    0.11559   0.78004   0.63040   1.000
    C2      C    0.61574   0.78143   0.62947   1.000
    C3      C    0.11573   0.71880   0.87063   1.000
    C4      C    0.13415   0.21865   0.12936   1.000
    C5      C    0.63433   0.21864   0.12948   1.000
    C6      C    0.13410   0.28130   0.37068   1.000
    C7      C    0.63457   0.28146   0.37040   1.000
    C8      C    0.38456   0.22094   0.37049   1.000
    C9      C    0.88436   0.21852   0.37049   1.000
    C10     C    0.38436   0.28144   0.12955   1.000
    C11     C    0.88436   0.28139   0.12947   1.000
    C12     C    0.36645   0.78112   0.87108   1.000
    C13     C    0.86569   0.78136   0.87056   1.000
    C14     C    0.36592   0.71870   0.62944   1.000
    C15     C    0.86564   0.71859   0.62945   1.000
