# CIF file generated by openbabel 2.4.90, see http://openbabel.sf.net
data_I
_chemical_name_common ''
_cell_length_a 20.365
_cell_length_b 17.894
_cell_length_c 19.845
_cell_angle_alpha 90.021
_cell_angle_beta 90.013
_cell_angle_gamma 89.977
_space_group_name_H-M_alt 'P 1'
_space_group_name_Hall 'P 1'
loop_
    _symmetry_equiv_pos_as_xyz
    x,y,z
loop_
    _atom_site_label
    _atom_site_type_symbol
    _atom_site_fract_x
    _atom_site_fract_y
    _atom_site_fract_z
    _atom_site_occupancy
    Zr0     Zr   0.48324   0.75001   0.74997   1.000
    Zr1     Zr   0.98303   0.74962   0.75011   1.000
    Zr2     Zr   0.26649   0.25070   0.24997   1.000
    Zr3     Zr   0.76700   0.25000   0.24995   1.000
    Zr4     Zr   0.01690   0.24991   0.25006   1.000
    Zr5     Zr   0.51703   0.25038   0.25001   1.000
    Zr6     Zr   0.23414   0.74978   0.75075   1.000
    Zr7     Zr   0.73314   0.74998   0.74999   1.000
    Zr8     Zr   0.11559   0.78004   0.63040   1.000
    Zr9     Zr   0.61574   0.78143   0.62947   1.000
    Zr10    Zr   0.11573   0.71880   0.87063   1.000
    Zr11    Zr   0.61580   0.71850   0.87051   1.000
    Zr12    Zr   0.13415   0.21865   0.12936   1.000
    Zr13    Zr   0.63433   0.21864   0.12948   1.000
    Zr14    Zr   0.13410   0.28130   0.37068   1.000
    Zr15    Zr   0.63457   0.28146   0.37040   1.000
    Zr16    Zr   0.38456   0.22094   0.37049   1.000
    Zr17    Zr   0.88436   0.21852   0.37049   1.000
    Zr18    Zr   0.38436   0.28144   0.12955   1.000
    Zr19    Zr   0.88436   0.28139   0.12947   1.000
    Zr20    Zr   0.36645   0.78112   0.87108   1.000
    Zr21    Zr   0.86569   0.78136   0.87056   1.000
    Zr22    Zr   0.36592   0.71870   0.62944   1.000
    Zr23    Zr   0.86564   0.71859   0.62945   1.000
    Zr24    Zr   0.07251   0.75041   0.66920   1.000
    Zr25    Zr   0.57269   0.75317   0.66900   1.000
    Zr26    Zr   0.17425   0.79326   0.64932   1.000
    Zr27    Zr   0.67482   0.79371   0.64741   1.000
    Zr28    Zr   0.07260   0.74697   0.83104   1.000
    Zr29    Zr   0.57271   0.74677   0.83093   1.000
    Zr30    Zr   0.17482   0.70654   0.85269   1.000
    Zr31    Zr   0.67489   0.70625   0.85250   1.000
    Zr32    Zr   0.17716   0.24696   0.16900   1.000
    Zr33    Zr   0.67740   0.24685   0.16911   1.000
    Zr34    Zr   0.07512   0.20621   0.14730   1.000
    Zr35    Zr   0.57527   0.20630   0.14741   1.000
    Zr36    Zr   0.17712   0.25294   0.33109   1.000
    Zr37    Zr   0.67752   0.25308   0.33082   1.000
    Zr38    Zr   0.07505   0.29375   0.35268   1.000
    Zr39    Zr   0.57548   0.29387   0.35262   1.000
    Zr40    Zr   0.42750   0.24955   0.33098   1.000
    Zr41    Zr   0.92738   0.24680   0.33089   1.000
    Zr42    Zr   0.32541   0.20893   0.35264   1.000
    Zr43    Zr   0.82527   0.20624   0.35256   1.000
    Zr44    Zr   0.42744   0.25313   0.16910   1.000
    Zr45    Zr   0.92740   0.25317   0.16910   1.000
    Zr46    Zr   0.32528   0.29375   0.14751   1.000
    Zr47    Zr   0.82526   0.29371   0.14735   1.000
    Zr48    Zr   0.32348   0.75223   0.83175   1.000
    Zr49    Zr   0.82265   0.75313   0.83090   1.000
    Zr50    Zr   0.42531   0.79396   0.85277   1.000
    Zr51    Zr   0.92477   0.79368   0.85266   1.000
    Zr52    Zr   0.32297   0.74705   0.66912   1.000
    Zr53    Zr   0.82259   0.74683   0.66909   1.000
    Zr54    Zr   0.42500   0.70623   0.64731   1.000
    Zr55    Zr   0.92470   0.70617   0.64739   1.000
    O56     O    0.10463   0.21243   0.13833   1.000
    O57     O    0.15566   0.23280   0.14918   1.000
    O58     O    0.85481   0.28755   0.13841   1.000
    O59     O    0.90588   0.26728   0.14929   1.000
    O60     O    0.60480   0.21247   0.13845   1.000
    O61     O    0.65587   0.23274   0.14930   1.000
    O62     O    0.35482   0.28760   0.13853   1.000
    O63     O    0.40590   0.26729   0.14933   1.000
    O64     O    0.04601   0.22806   0.19868   1.000
    O65     O    0.79613   0.27186   0.19865   1.000
    O66     O    0.54615   0.22834   0.19871   1.000
    O67     O    0.29588   0.27222   0.19874   1.000
    O68     O    0.22183   0.24883   0.20949   1.000
    O69     O    0.97215   0.25154   0.20958   1.000
    O70     O    0.47224   0.25176   0.20956   1.000
    O71     O    0.72220   0.24843   0.20953   1.000
    O72     O    0.72226   0.25154   0.29039   1.000
    O73     O    0.79614   0.22812   0.30125   1.000
    O74     O    0.22181   0.25182   0.29053   1.000
    O75     O    0.29595   0.22981   0.30130   1.000
    O76     O    0.47226   0.24997   0.29050   1.000
    O77     O    0.54626   0.27212   0.30131   1.000
    O78     O    0.97214   0.24835   0.29048   1.000
    O79     O    0.04597   0.27183   0.30137   1.000
    O80     O    0.65605   0.26727   0.35061   1.000
    O81     O    0.90587   0.23266   0.35069   1.000
    O82     O    0.40603   0.23525   0.35074   1.000
    O83     O    0.15561   0.26712   0.35089   1.000
    O84     O    0.85481   0.21238   0.36152   1.000
    O85     O    0.60503   0.28766   0.36151   1.000
    O86     O    0.35499   0.21493   0.36157   1.000
    O87     O    0.10458   0.28753   0.36168   1.000
    O88     O    0.39546   0.71246   0.63838   1.000
    O89     O    0.34445   0.73287   0.64928   1.000
    O90     O    0.89517   0.71238   0.63842   1.000
    O91     O    0.84411   0.73271   0.64927   1.000
    O92     O    0.64528   0.78757   0.63844   1.000
    O93     O    0.59421   0.76730   0.64924   1.000
    O94     O    0.14492   0.78665   0.63986   1.000
    O95     O    0.09405   0.76523   0.64980   1.000
    O96     O    0.45412   0.72812   0.69864   1.000
    O97     O    0.95386   0.72789   0.69875   1.000
    O98     O    0.70398   0.77185   0.69870   1.000
    O99     O    0.20419   0.77152   0.70004   1.000
    O100    O    0.52796   0.75159   0.70949   1.000
    O101    O    0.77787   0.74841   0.70954   1.000
    O102    O    0.27855   0.74841   0.70994   1.000
    O103    O    0.02777   0.75001   0.70966   1.000
    O104    O    0.52797   0.74839   0.79045   1.000
    O105    O    0.45427   0.77199   0.80137   1.000
    O106    O    0.77790   0.75156   0.79045   1.000
    O107    O    0.70402   0.72811   0.80125   1.000
    O108    O    0.02782   0.74829   0.79058   1.000
    O109    O    0.95390   0.77165   0.80139   1.000
    O110    O    0.27881   0.75101   0.79125   1.000
    O111    O    0.20448   0.72816   0.80172   1.000
    O112    O    0.84417   0.76725   0.85073   1.000
    O113    O    0.59426   0.73263   0.85072   1.000
    O114    O    0.09416   0.73289   0.85084   1.000
    O115    O    0.34497   0.76668   0.85142   1.000
    O116    O    0.64535   0.71238   0.86150   1.000
    O117    O    0.89523   0.78752   0.86161   1.000
    O118    O    0.14527   0.71267   0.86166   1.000
    O119    O    0.39588   0.78754   0.86192   1.000
    N120    N    0.42469   0.32085   0.98215   1.000
    O121    O    0.40932   0.30571   0.03816   1.000
    N122    N    0.99996   0.50000   0.99992   1.000
    O123    O    0.01385   0.40626   0.11663   1.000
    O124    O    0.98610   0.59357   0.88352   1.000
    N125    N    0.25009   0.50015   0.50064   1.000
    O126    O    0.26314   0.40680   0.38369   1.000
    O127    O    0.23713   0.59355   0.61745   1.000
    N128    N    0.75000   0.99994   0.99951   1.000
    O129    O    0.76389   0.09367   0.11632   1.000
    O130    O    0.73615   0.90626   0.88316   1.000
    N131    N    0.25142   0.00053   0.99991   1.000
    O132    O    0.23780   0.90655   0.88367   1.000
    O133    O    0.26449   0.09425   0.11670   1.000
    N134    N    0.17467   0.32104   0.51799   1.000
    O135    O    0.15921   0.30578   0.46201   1.000
    N136    N    0.67485   0.17924   0.98208   1.000
    O137    O    0.65941   0.19436   0.03810   1.000
    N138    N    0.07544   0.67925   0.01801   1.000
    O139    O    0.09079   0.69444   0.96200   1.000
    N140    N    0.92497   0.32084   0.98214   1.000
    O141    O    0.90950   0.30569   0.03813   1.000
    N142    N    0.92491   0.17901   0.51782   1.000
    O143    O    0.90946   0.19417   0.46183   1.000
    N144    N    0.00008   0.99976   0.49985   1.000
    O145    O    0.01388   0.09355   0.38338   1.000
    O146    O    0.98624   0.90597   0.61647   1.000
    N147    N    0.50004   0.50008   0.99928   1.000
    O148    O    0.48620   0.59375   0.88300   1.000
    O149    O    0.51392   0.40648   0.11615   1.000
    N150    N    0.57528   0.82089   0.48208   1.000
    O151    O    0.59069   0.80574   0.53810   1.000
    N152    N    0.57546   0.67897   0.01783   1.000
    O153    O    0.59083   0.69415   0.96184   1.000
    N154    N    0.17498   0.17908   0.98210   1.000
    O155    O    0.15942   0.19427   0.03806   1.000
    N156    N    0.67538   0.32079   0.51782   1.000
    O157    O    0.65983   0.30569   0.46181   1.000
    N158    N    0.82515   0.82062   0.01797   1.000
    O159    O    0.84060   0.80555   0.96195   1.000
    N160    N    0.07603   0.82056   0.48307   1.000
    O161    O    0.09112   0.80500   0.53907   1.000
    N162    N    0.75005   0.50009   0.49993   1.000
    O163    O    0.73618   0.59374   0.61654   1.000
    O164    O    0.76392   0.40634   0.38336   1.000
    N165    N    0.49989   0.00012   0.50010   1.000
    O166    O    0.48613   0.90635   0.61662   1.000
    O167    O    0.51372   0.09395   0.38354   1.000
    N168    N    0.32496   0.67909   0.48222   1.000
    O169    O    0.34057   0.69430   0.53816   1.000
    N170    N    0.82510   0.67943   0.48199   1.000
    O171    O    0.84055   0.69447   0.53803   1.000
    N172    N    0.32602   0.82110   0.01835   1.000
    O173    O    0.34144   0.80575   0.96238   1.000
    N174    N    0.42545   0.18001   0.51742   1.000
    O175    O    0.40987   0.19572   0.46158   1.000
loop_
    _geom_bond_atom_site_label_1
    _geom_bond_atom_site_label_2
    _geom_bond_distance
    _geom_bond_site_symmetry_2
    _ccdc_geom_bond_type
    Zr12   O56       0.63686      .   S
    Zr34   O56       0.63686      .   S
    Zr12   O57       0.64078      .   S
    Zr32   O57       0.64078      .   S
    Zr19   O58       0.63696      .   S
    Zr47   O58       0.63696      .   S
    Zr19   O59       0.64061      .   S
    Zr45   O59       0.64061      .   S
    Zr13   O60       0.63692      .   S
    Zr35   O60       0.63692      .   S
    Zr13   O61       0.64078      .   S
    Zr33   O61       0.64078      .   S
    Zr18   O62       0.63699      .   S
    Zr46   O62       0.63699      .   S
    Zr18   O63       0.64075      .   S
    Zr44   O63       0.64075      .   S
    Zr34   O64       1.24247      .   S
    Zr4    O64       1.24247      .   S
    Zr47   O65       1.24177      .   S
    Zr3    O65       1.24177      .   S
    Zr35   O66       1.24235      .   S
    Zr5    O66       1.24235      .   S
    Zr46   O67       1.24139      .   S
    Zr2    O67       1.24139      .   S
    Zr32   O68       1.21393      .   S
    Zr2    O68       1.21393      .   S
    Zr45   O69       1.21501      .   S
    Zr4    O69       1.21501  1_455   S
    Zr44   O70       1.21529      .   S
    Zr5    O70       1.21529      .   S
    Zr33   O71       1.21501      .   S
    Zr3    O71       1.21501      .   S
    Zr3    O72       1.21453      .   S
    Zr37   O72       1.21453      .   S
    Zr3    O73       1.24169      .   S
    Zr43   O73       1.24169      .   S
    Zr2    O74       1.21518      .   S
    Zr36   O74       1.21518      .   S
    Zr2    O75       1.23987      .   S
    Zr42   O75       1.23987      .   S
    Zr5    O76       1.21532      .   S
    Zr40   O76       1.21532      .   S
    Zr5    O77       1.24172      .   S
    Zr39   O77       1.24172      .   S
    Zr4    O78       1.21457  1_455   S
    Zr41   O78       1.21457      .   S
    Zr4    O79       1.24138      .   S
    Zr38   O79       1.24138      .   S
    Zr37   O80       0.64022      .   S
    Zr15   O80       0.64022      .   S
    Zr41   O81       0.64078      .   S
    Zr17   O81       0.64078      .   S
    Zr40   O82       0.64078      .   S
    Zr16   O82       0.64078      .   S
    Zr36   O83       0.64072      .   S
    Zr14   O83       0.64072      .   S
    Zr43   O84       0.63694      .   S
    Zr17   O84       0.63694      .   S
    Zr39   O85       0.63669      .   S
    Zr15   O85       0.63669      .   S
    Zr42   O86       0.63692      .   S
    Zr16   O86       0.63692      .   S
    Zr38   O87       0.63698      .   S
    Zr14   O87       0.63698      .   S
    Zr22   O88       0.63687      .   S
    Zr54   O88       0.63687      .   S
    Zr22   O89       0.64075      .   S
    Zr52   O89       0.64075      .   S
    Zr23   O90       0.63685      .   S
    Zr55   O90       0.63685      .   S
    Zr23   O91       0.64080      .   S
    Zr53   O91       0.64080      .   S
    Zr9    O92       0.63690      .   S
    Zr27   O92       0.63690      .   S
    Zr9    O93       0.64046      .   S
    Zr25   O93       0.64046      .   S
    Zr8    O94       0.63721      .   S
    Zr26   O94       0.63721      .   S
    Zr8    O95       0.64125      .   S
    Zr24   O95       0.64125      .   S
    Zr54   O96       1.24193      .   S
    Zr0    O96       1.24193      .   S
    Zr55   O97       1.24195      .   S
    Zr1    O97       1.24195      .   S
    Zr27   O98       1.24164      .   S
    Zr7    O98       1.24164      .   S
    Zr26   O99       1.23932      .   S
    Zr6    O99       1.23932      .   S
    Zr25   O100      1.21503      .   S
    Zr0    O100      1.21503      .   S
    Zr53   O101      1.21448      .   S
    Zr7    O101      1.21448      .   S
    Zr52   O102      1.21458      .   S
    Zr6    O102      1.21458      .   S
    Zr24   O103      1.21449      .   S
    Zr1    O103      1.21449  1_655   S
    Zr0    O104      1.21489      .   S
    Zr29   O104      1.21489      .   S
    Zr0    O105      1.24211      .   S
    Zr50   O105      1.24211      .   S
    Zr7    O106      1.21479      .   S
    Zr49   O106      1.21479      .   S
    Zr7    O107      1.24110      .   S
    Zr31   O107      1.24110      .   S
    Zr1    O108      1.21529  1_655   S
    Zr28   O108      1.21529      .   S
    Zr1    O109      1.24201      .   S
    Zr51   O109      1.24201      .   S
    Zr6    O110      1.21399      .   S
    Zr48   O110      1.21399      .   S
    Zr6    O111      1.24030      .   S
    Zr30   O111      1.24030      .   S
    Zr49   O112      0.64084      .   S
    Zr21   O112      0.64084      .   S
    Zr29   O113      0.64078      .   S
    Zr11   O113      0.64078      .   S
    Zr28   O114      0.64073      .   S
    Zr10   O114      0.64073      .   S
    Zr48   O115      0.64072      .   S
    Zr20   O115      0.64072      .   S
    Zr31   O116      0.63709      .   S
    Zr11   O116      0.63709      .   S
    Zr51   O117      0.63691      .   S
    Zr21   O117      0.63691      .   S
    Zr30   O118      0.63700      .   S
    Zr10   O118      0.63700      .   S
    Zr50   O119      0.63674      .   S
    Zr20   O119      0.63674      .   S
    N120   O121      1.18637  1_556   S
    Zr18   O121      1.93320      .   S
    N122   O123      2.87396  1_656   S
    Zr4    O123      3.85339      .   S
    N122   O124      2.86729      .   S
    Zr1    O124      3.84906      .   S
    N125   O126      2.87136      .   S
    Zr2    O126      3.85266      .   S
    N125   O127      2.86948      .   S
    Zr6    O127      3.84848      .   S
    N128   O129      2.87463  1_566   S
    Zr3    O129      3.85454      .   S
    N128   O130      2.86671      .   S
    Zr7    O130      3.84741      .   S
    N131   O132      2.86774  1_545   S
    Zr6    O132      3.85064      .   S
    N131   O133      2.87267  1_556   S
    Zr2    O133      3.85070      .   S
    N134   O135      1.18642      .   S
    Zr14   O135      1.93324      .   S
    N136   O137      1.18654  1_556   S
    Zr13   O137      1.93342      .   S
    N138   O139      1.18633  1_554   S
    Zr10   O139      1.93315      .   S
    N140   O141      1.18653  1_556   S
    Zr19   O141      1.93334      .   S
    N142   O143      1.18629      .   S
    Zr17   O143      1.93314      .   S
    N144   O145      2.87096  1_565   S
    Zr4    O145      3.85181      .   S
    N144   O146      2.87313  1_455   S
    Zr1    O146      3.85638      .   S
    N147   O148      2.86632      .   S
    Zr0    O148      3.84663      .   S
    N147   O149      2.87515  1_556   S
    Zr5    O149      3.85588      .   S
    N150   O151      1.18646      .   S
    Zr9    O151      1.93326      .   S
    N152   O153      1.18607  1_554   S
    Zr11   O153      1.93263      .   S
    N154   O155      1.18647  1_556   S
    Zr12   O155      1.93321      .   S
    N156   O157      1.18682      .   S
    Zr15   O157      1.93449      .   S
    N158   O159      1.18641  1_554   S
    Zr21   O159      1.93325      .   S
    N160   O161      1.18605      .   S
    Zr8    O161      1.93210      .   S
    N162   O163      2.87055      .   S
    Zr7    O163      3.85078      .   S
    N162   O164      2.87087      .   S
    Zr3    O164      3.85154      .   S
    N165   O166      2.87129  1_545   S
    Zr0    O166      3.85208      .   S
    N165   O167      2.87266      .   S
    Zr5    O167      3.85592      .   S
    N168   O169      1.18640      .   S
    Zr22   O169      1.93323      .   S
    N170   O171      1.18650      .   S
    Zr23   O171      1.93338      .   S
    N172   O173      1.18629  1_554   S
    Zr20   O173      1.93300      .   S
    N174   O175      1.18644      .   S
    Zr16   O175      1.93313      .   S
