# CIF file generated by openbabel 2.4.90, see http://openbabel.sf.net
data_I
_chemical_name_common ''
_cell_length_a 15.75
_cell_length_b 15.748
_cell_length_c 16.414
_cell_angle_alpha 89.999
_cell_angle_beta 89.999
_cell_angle_gamma 119.966
_space_group_name_H-M_alt 'P 1'
_space_group_name_Hall 'P 1'
loop_
    _symmetry_equiv_pos_as_xyz
    x,y,z
loop_
    _atom_site_label
    _atom_site_type_symbol
    _atom_site_fract_x
    _atom_site_fract_y
    _atom_site_fract_z
    _atom_site_occupancy
    Zn0     Zn   0.66661   0.33325   0.16969   1.000
    Ag1     Ag   0.84656   0.26498   0.26760   1.000
    Ag2     Ag   0.41839   0.15338   0.26762   1.000
    Ag3     Ag   0.73493   0.58158   0.26759   1.000
    Ag4     Ag   0.15334   0.73501   0.73200   1.000
    Ag5     Ag   0.58157   0.84659   0.73236   1.000
    Ag6     Ag   0.26502   0.41842   0.73230   1.000
    Zn7     Zn   0.33331   0.66670   0.83031   1.000
