# CIF file generated by openbabel 2.4.90, see http://openbabel.sf.net
data_I
_chemical_name_common ''
_cell_length_a 15.75
_cell_length_b 15.748
_cell_length_c 16.414
_cell_angle_alpha 89.999
_cell_angle_beta 89.999
_cell_angle_gamma 119.966
_space_group_name_H-M_alt 'P 1'
_space_group_name_Hall 'P 1'
loop_
    _symmetry_equiv_pos_as_xyz
    x,y,z
loop_
    _atom_site_label
    _atom_site_type_symbol
    _atom_site_fract_x
    _atom_site_fract_y
    _atom_site_fract_z
    _atom_site_occupancy
    Zr0     Zr   0.33331   0.66670   0.83031   1.000
    Zr1     Zr   0.66661   0.33325   0.16969   1.000
    Zr2     Zr   0.84656   0.26498   0.26760   1.000
    Zr3     Zr   0.41839   0.15338   0.26762   1.000
    Zr4     Zr   0.73493   0.58158   0.26759   1.000
    Zr5     Zr   0.15334   0.73501   0.73200   1.000
    Zr6     Zr   0.58157   0.84659   0.73236   1.000
    Zr7     Zr   0.26502   0.41842   0.73230   1.000
    N8      N    0.53702   0.50828   0.20405   1.000
    O9      O    0.40782   0.45453   0.43754   1.000
    O10     O    0.57887   0.66985   0.99224   1.000
    O11     O    0.59616   0.52002   0.21968   1.000
    O12     O    0.51238   0.37471   0.23145   1.000
    N13     N    0.46294   0.49168   0.79595   1.000
    O14     O    0.59216   0.54545   0.56244   1.000
    O15     O    0.40381   0.47996   0.78030   1.000
    O16     O    0.48758   0.62524   0.76854   1.000
    O17     O    0.42107   0.33011   0.00775   1.000
    N18     N    0.50825   0.97123   0.79595   1.000
    O19     O    0.37470   0.86234   0.76845   1.000
    O20     O    0.51999   0.92382   0.78031   1.000
    O21     O    0.45449   0.04668   0.56244   1.000
    O22     O    0.66979   0.09094   0.00774   1.000
    N23     N    0.02873   0.53704   0.79595   1.000
    O24     O    0.95326   0.40783   0.56244   1.000
    O25     O    0.07613   0.59619   0.78022   1.000
    O26     O    0.90901   0.57891   0.00774   1.000
    O27     O    0.13765   0.51240   0.76852   1.000
    N28     N    0.97123   0.46297   0.20405   1.000
    O29     O    0.92382   0.40382   0.21968   1.000
    O30     O    0.86231   0.48761   0.23146   1.000
    O31     O    0.09097   0.42112   0.99223   1.000
    O32     O    0.04667   0.59218   0.43746   1.000
    N33     N    0.49169   0.02874   0.20402   1.000
    O34     O    0.62523   0.13764   0.23144   1.000
    O35     O    0.54544   0.95327   0.43754   1.000
    O36     O    0.47996   0.07614   0.21967   1.000
    O37     O    0.33012   0.90905   0.99215   1.000
    O38     O    0.84699   0.41576   0.18780   1.000
    O39     O    0.41575   0.56875   0.81220   1.000
    O40     O    0.43122   0.84702   0.81220   1.000
    O41     O    0.15296   0.58423   0.81220   1.000
    O42     O    0.56872   0.15294   0.18778   1.000
    O43     O    0.58419   0.43120   0.18779   1.000
loop_
    _geom_bond_atom_site_label_1
    _geom_bond_atom_site_label_2
    _geom_bond_distance
    _geom_bond_site_symmetry_2
    _ccdc_geom_bond_type
    N8     O9        4.22200      .   S
    Zr7    O9        5.24510      .   S
    N8     O10       4.16165  1_554   S
    Zr6    O10       5.08192      .   S
    N8     O11       0.89195      .   S
    Zr4    O11       2.05399      .   S
    N8     O12       1.99040      .   S
    Zr3    O12       3.08846      .   S
    N13    O14       4.22238      .   S
    Zr4    O14       5.24632      .   S
    N13    O15       0.89203      .   S
    Zr7    O15       2.05470      .   S
    N13    O16       1.99039      .   S
    Zr6    O16       3.08866      .   S
    N13    O17       4.16147  1_556   S
    Zr3    O17       5.08178      .   S
    N18    O19       1.99130      .   S
    Zr5    O19       3.09030      .   S
    N18    O20       0.89180      .   S
    Zr6    O20       2.05372      .   S
    N18    O21       4.22198  1_565   S
    Zr3    O21       5.24573      .   S
    N18    O22       4.16183  1_566   S
    Zr2    O22       5.08281      .   S
    N23    O24       4.22241  1_455   S
    Zr2    O24       5.24683      .   S
    N23    O25       0.89272      .   S
    Zr5    O25       2.05639      .   S
    N23    O26       4.16130  1_456   S
    Zr4    O26       5.08192      .   S
    N23    O27       1.99033      .   S
    Zr7    O27       3.08766      .   S
    N28    O29       0.89229      .   S
    Zr2    O29       2.05479      .   S
    N28    O30       1.99016      .   S
    Zr4    O30       3.08757      .   S
    N28    O31       4.16166  1_654   S
    Zr7    O31       5.08294      .   S
    N28    O32       4.22096  1_655   S
    Zr5    O32       5.24216      .   S
    N33    O34       1.99096      .   S
    Zr2    O34       3.08910      .   S
    N33    O35       4.22206  1_545   S
    Zr6    O35       5.24582      .   S
    N33    O36       0.89172      .   S
    Zr3    O36       2.05362      .   S
    N33    O37       4.16307  1_544   S
    Zr5    O37       5.08683      .   S
    N28    O38       1.73192      .   S
    Zr1    O38       2.48201      .   S
    Zr0    O39       2.48080      .   S
    N13    O39       1.73133      .   S
    Zr0    O40       2.48108      .   S
    N18    O40       1.73154      .   S
    Zr0    O41       2.48161      .   S
    N23    O41       1.73185      .   S
    Zr1    O42       2.48081      .   S
    N33    O42       1.73149      .   S
    Zr1    O43       2.48062      .   S
    N8     O43       1.73127      .   S
