# CIF file generated by openbabel 2.4.90, see http://openbabel.sf.net
data_I
_chemical_name_common ''
_cell_length_a 15.75
_cell_length_b 15.748
_cell_length_c 16.414
_cell_angle_alpha 89.999
_cell_angle_beta 89.999
_cell_angle_gamma 119.966
_space_group_name_H-M_alt 'P 1'
_space_group_name_Hall 'P 1'
loop_
    _symmetry_equiv_pos_as_xyz
    x,y,z
loop_
    _atom_site_label
    _atom_site_type_symbol
    _atom_site_fract_x
    _atom_site_fract_y
    _atom_site_fract_z
    _atom_site_occupancy
    C0      C    0.33331   0.66670   0.83031   1.000
    C1      C    0.66661   0.33325   0.16969   1.000
    C2      C    0.84656   0.26498   0.26760   1.000
    C3      C    0.41839   0.15338   0.26762   1.000
    C4      C    0.73493   0.58158   0.26759   1.000
    C5      C    0.15334   0.73501   0.73200   1.000
    C6      C    0.58157   0.84659   0.73236   1.000
    C7      C    0.26502   0.41842   0.73230   1.000
    C8      C    0.01703   0.55158   0.78518   1.000
    C9      C    0.15659   0.63081   0.03520   1.000
    C10     C    0.95294   0.61431   0.85241   1.000
    C11     C    0.05251   0.64529   0.14348   1.000
    C12     C    0.84957   0.62794   0.95819   1.000
    C13     C    0.22211   0.51671   0.60856   1.000
    C14     C    0.94068   0.45445   0.70156   1.000
    C15     C    0.14263   0.42505   0.48219   1.000
    C16     C    0.86183   0.36717   0.57556   1.000
    C17     C    0.53447   0.98292   0.78515   1.000
    C18     C    0.47430   0.84344   0.03520   1.000
    C19     C    0.66126   0.04698   0.85240   1.000
    C20     C    0.59278   0.94748   0.14348   1.000
    C21     C    0.77819   0.15032   0.95816   1.000
    C22     C    0.29460   0.77785   0.60863   1.000
    C23     C    0.51365   0.05924   0.70154   1.000
    C24     C    0.28242   0.85735   0.48222   1.000
    C25     C    0.50522   0.13810   0.57550   1.000
    C26     C    0.44842   0.46541   0.78515   1.000
    C27     C    0.36915   0.52576   0.03524   1.000
    C28     C    0.38570   0.33863   0.85241   1.000
    C29     C    0.35466   0.40720   0.14348   1.000
    C30     C    0.37206   0.22162   0.95819   1.000
    C31     C    0.48322   0.70542   0.60861   1.000
    C32     C    0.54554   0.48618   0.70153   1.000
    C33     C    0.57493   0.71760   0.48224   1.000
    C34     C    0.63286   0.49462   0.57553   1.000
    C35     C    0.98294   0.44843   0.21480   1.000
    C36     C    0.84336   0.36915   0.96476   1.000
    C37     C    0.04706   0.38577   0.14758   1.000
    C38     C    0.94743   0.35465   0.85652   1.000
    C39     C    0.15043   0.37212   0.04181   1.000
    C40     C    0.77784   0.48325   0.39144   1.000
    C41     C    0.05930   0.54560   0.29844   1.000
    C42     C    0.85731   0.57490   0.51782   1.000
    C43     C    0.13813   0.63288   0.42445   1.000
    C44     C    0.46548   0.01704   0.21485   1.000
    C45     C    0.52567   0.15651   0.96474   1.000
    C46     C    0.33869   0.95297   0.14700   1.000
    C47     C    0.40718   0.05248   0.85652   1.000
    C48     C    0.22175   0.84965   0.04180   1.000
    C49     C    0.70535   0.22212   0.39139   1.000
    C50     C    0.48626   0.94075   0.29848   1.000
    C51     C    0.71754   0.14261   0.51778   1.000
    C52     C    0.49470   0.86187   0.42450   1.000
    C53     C    0.55156   0.53455   0.21486   1.000
    C54     C    0.63080   0.47421   0.96477   1.000
    C55     C    0.61431   0.66136   0.14762   1.000
    C56     C    0.64525   0.59276   0.85650   1.000
    C57     C    0.62793   0.77837   0.04180   1.000
    C58     C    0.51673   0.29452   0.39138   1.000
    C59     C    0.45442   0.51377   0.29848   1.000
    C60     C    0.42503   0.28234   0.51770   1.000
    C61     C    0.36711   0.50535   0.42449   1.000
    C62     C    0.14084   0.54376   0.74024   1.000
    C63     C    0.09372   0.57567   0.79698   1.000
    C64     C    0.12854   0.61132   0.87746   1.000
    C65     C    0.06179   0.61946   0.93698   1.000
    C66     C    0.08896   0.63007   0.01987   1.000
    C67     C    0.97468   0.61925   0.91602   1.000
    C68     C    0.03153   0.63836   0.07954   1.000
    C69     C    0.91653   0.62803   0.97491   1.000
    C70     C    0.94425   0.63775   0.05785   1.000
    C71     C    0.88736   0.64794   0.11907   1.000
    C72     C    0.08829   0.49210   0.66518   1.000
    C73     C    0.14310   0.48251   0.60106   1.000
    C74     C    0.98607   0.44949   0.65380   1.000
    C75     C    0.09893   0.43198   0.53041   1.000
    C76     C    0.94069   0.39929   0.58321   1.000
    C77     C    0.99630   0.38898   0.52013   1.000
    C78     C    0.94969   0.33751   0.44862   1.000
    C79     C    0.40290   0.85915   0.74028   1.000
    C80     C    0.48190   0.90624   0.79699   1.000
    C81     C    0.48276   0.87145   0.87749   1.000
    C82     C    0.55765   0.93819   0.93698   1.000
    C83     C    0.54113   0.91104   0.01987   1.000
    C84     C    0.64446   0.02524   0.91601   1.000
    C85     C    0.60682   0.96846   0.07953   1.000
    C86     C    0.71137   0.08338   0.97489   1.000
    C87     C    0.69340   0.05568   0.05783   1.000
    C88     C    0.76044   0.11258   0.11905   1.000
    C89     C    0.40378   0.91169   0.66519   1.000
    C90     C    0.33940   0.85686   0.60110   1.000
    C91     C    0.46332   0.01386   0.65383   1.000
    C92     C    0.33304   0.90103   0.53043   1.000
    C93     C    0.45850   0.05925   0.58318   1.000
    C94     C    0.39261   0.00363   0.52012   1.000
    C95     C    0.38774   0.05024   0.44860   1.000
    C96     C    0.45617   0.59703   0.74025   1.000
    C97     C    0.42433   0.51804   0.79699   1.000
    C98     C    0.38868   0.51721   0.87747   1.000
    C99     C    0.38055   0.44232   0.93690   1.000
    C100    C    0.36991   0.45888   0.01987   1.000
    C101    C    0.38075   0.35543   0.91602   1.000
    C102    C    0.36162   0.39316   0.07954   1.000
    C103    C    0.37198   0.28850   0.97491   1.000
    C104    C    0.36222   0.30649   0.05785   1.000
    C105    C    0.35204   0.23942   0.11907   1.000
    C106    C    0.50785   0.59615   0.66518   1.000
    C107    C    0.51741   0.66057   0.60109   1.000
    C108    C    0.55049   0.53654   0.65383   1.000
    C109    C    0.56798   0.66694   0.53044   1.000
    C110    C    0.60072   0.54137   0.58319   1.000
    C111    C    0.61100   0.60730   0.52014   1.000
    C112    C    0.66249   0.61218   0.44862   1.000
    C113    C    0.85913   0.45623   0.25976   1.000
    C114    C    0.90626   0.42436   0.20301   1.000
    C115    C    0.87144   0.38870   0.12254   1.000
    C116    C    0.93819   0.38057   0.06301   1.000
    C117    C    0.91099   0.36991   0.98013   1.000
    C118    C    0.02530   0.38079   0.08390   1.000
    C119    C    0.96844   0.36163   0.92046   1.000
    C120    C    0.08347   0.37203   0.02509   1.000
    C121    C    0.05571   0.36223   0.94215   1.000
    C122    C    0.11262   0.35206   0.88093   1.000
    C123    C    0.91169   0.50792   0.33483   1.000
    C124    C    0.85685   0.51744   0.39895   1.000
    C125    C    0.01389   0.55053   0.34616   1.000
    C126    C    0.90101   0.56798   0.46960   1.000
    C127    C    0.05927   0.60074   0.41680   1.000
    C128    C    0.00364   0.61101   0.47988   1.000
    C129    C    0.05024   0.66249   0.55140   1.000
    C130    C    0.59703   0.14083   0.25974   1.000
    C131    C    0.51806   0.09372   0.20300   1.000
    C132    C    0.51719   0.12850   0.12251   1.000
    C133    C    0.44230   0.06177   0.06302   1.000
    C134    C    0.45884   0.08891   0.98012   1.000
    C135    C    0.35549   0.97471   0.08398   1.000
    C136    C    0.39314   0.03151   0.92046   1.000
    C137    C    0.28858   0.91659   0.02510   1.000
    C138    C    0.30655   0.94428   0.94216   1.000
    C139    C    0.23948   0.88741   0.88095   1.000
    C140    C    0.59615   0.08830   0.33482   1.000
    C141    C    0.66054   0.14311   0.39891   1.000
    C142    C    0.53659   0.98612   0.34618   1.000
    C143    C    0.66691   0.09893   0.46950   1.000
    C144    C    0.54141   0.94073   0.41683   1.000
    C145    C    0.60733   0.99633   0.47988   1.000
    C146    C    0.61220   0.94971   0.55139   1.000
    C147    C    0.54376   0.40291   0.25975   1.000
    C148    C    0.57566   0.48193   0.20304   1.000
    C149    C    0.61132   0.48276   0.12255   1.000
    C150    C    0.61947   0.55767   0.06300   1.000
    C151    C    0.63003   0.54108   0.98015   1.000
    C152    C    0.61922   0.64454   0.08400   1.000
    C153    C    0.63833   0.60681   0.92048   1.000
    C154    C    0.62801   0.71149   0.02512   1.000
    C155    C    0.63771   0.69346   0.94218   1.000
    C156    C    0.64791   0.76055   0.88095   1.000
    C157    C    0.49208   0.40379   0.33481   1.000
    C158    C    0.48252   0.33937   0.39890   1.000
    C159    C    0.44947   0.46341   0.34618   1.000
    C160    C    0.43198   0.33300   0.46956   1.000
    C161    C    0.39926   0.45860   0.41680   1.000
    C162    C    0.38895   0.39264   0.47987   1.000
    C163    C    0.33747   0.38776   0.55138   1.000
    C164    C    0.90903   0.29224   0.39025   1.000
    C165    C    0.84363   0.65996   0.17145   1.000
    C166    C    0.38308   0.09090   0.39022   1.000
    C167    C    0.81612   0.15633   0.17144   1.000
    C168    C    0.70781   0.61685   0.39025   1.000
    C169    C    0.34003   0.18370   0.17147   1.000
    C170    C    0.09088   0.70778   0.60976   1.000
    C171    C    0.15638   0.34012   0.82854   1.000
    C172    C    0.61682   0.90900   0.60975   1.000
    C173    C    0.18376   0.84370   0.82857   1.000
    C174    C    0.29221   0.38313   0.60978   1.000
    C175    C    0.65988   0.81624   0.82850   1.000
    C176    C    0.22812   0.55708   0.74986   1.000
    C177    C    0.21403   0.63518   0.90330   1.000
    C178    C    0.32895   0.77191   0.74991   1.000
    C179    C    0.42116   0.78597   0.90330   1.000
    C180    C    0.44285   0.67101   0.74989   1.000
    C181    C    0.36479   0.57886   0.90330   1.000
    C182    C    0.77186   0.44291   0.25014   1.000
    C183    C    0.78594   0.36482   0.09672   1.000
    C184    C    0.67097   0.22810   0.25010   1.000
    C185    C    0.57879   0.21398   0.09665   1.000
    C186    C    0.55707   0.32892   0.25010   1.000
    C187    C    0.63514   0.42109   0.09668   1.000
    O188    O    0.36953   0.49232   0.02755   1.000
    O189    O    0.36577   0.42602   0.04970   1.000
    O190    O    0.37523   0.45060   0.97838   1.000
    O191    O    0.50771   0.87724   0.02753   1.000
    O192    O    0.57397   0.93975   0.04970   1.000
    O193    O    0.54939   0.92462   0.97842   1.000
    O194    O    0.12278   0.63044   0.02753   1.000
    O195    O    0.06025   0.63421   0.04970   1.000
    O196    O    0.07538   0.62477   0.97842   1.000
    O197    O    0.11695   0.37208   0.03345   1.000
    O198    O    0.05439   0.37641   0.05449   1.000
    O199    O    0.06959   0.36713   0.98362   1.000
    O200    O    0.25517   0.88312   0.03345   1.000
    O201    O    0.32204   0.94565   0.05454   1.000
    O202    O    0.29756   0.93043   0.98363   1.000
    O203    O    0.62797   0.74493   0.03346   1.000
    O204    O    0.62362   0.67802   0.05456   1.000
    O205    O    0.63286   0.70248   0.98365   1.000
    O206    O    0.65011   0.01207   0.06868   1.000
    O207    O    0.72692   0.08413   0.08844   1.000
    O208    O    0.70239   0.06953   0.01636   1.000
    O209    O    0.98789   0.63805   0.06869   1.000
    O210    O    0.91580   0.64285   0.08846   1.000
    O211    O    0.93039   0.63289   0.01638   1.000
    O212    O    0.36192   0.34983   0.06869   1.000
    O213    O    0.35713   0.27296   0.08846   1.000
    O214    O    0.36710   0.29750   0.01638   1.000
    O215    O    0.61934   0.60111   0.07350   1.000
    O216    O    0.61539   0.52022   0.09277   1.000
    O217    O    0.62475   0.54938   0.02157   1.000
    O218    O    0.98175   0.38068   0.07345   1.000
    O219    O    0.90481   0.38463   0.09277   1.000
    O220    O    0.92459   0.37524   0.02157   1.000
    O221    O    0.39890   0.01824   0.07350   1.000
    O222    O    0.47974   0.09514   0.09276   1.000
    O223    O    0.45057   0.07534   0.02157   1.000
    O224    O    0.59980   0.95797   0.11150   1.000
    O225    O    0.04202   0.64183   0.11151   1.000
    O226    O    0.35814   0.40018   0.11151   1.000
    O227    O    0.03618   0.38328   0.11574   1.000
    O228    O    0.34709   0.96384   0.11549   1.000
    O229    O    0.61677   0.65295   0.11581   1.000
    O230    O    0.54799   0.17124   0.10958   1.000
    O231    O    0.62270   0.27361   0.13317   1.000
    O232    O    0.62323   0.45193   0.10961   1.000
    O233    O    0.65088   0.37717   0.13318   1.000
    O234    O    0.82869   0.37676   0.10963   1.000
    O235    O    0.72627   0.34903   0.13320   1.000
    O236    O    0.78828   0.13446   0.14524   1.000
    O237    O    0.34603   0.21156   0.14527   1.000
    O238    O    0.86549   0.65395   0.14526   1.000
    O239    O    0.51762   0.11111   0.16275   1.000
    O240    O    0.88885   0.40653   0.16277   1.000
    O241    O    0.59349   0.48235   0.16279   1.000
    O242    O    0.61184   0.33108   0.20989   1.000
    O243    O    0.66879   0.28067   0.20989   1.000
    O244    O    0.71923   0.38808   0.20991   1.000
    O245    O    0.83134   0.21065   0.21952   1.000
    O246    O    0.78928   0.62077   0.21952   1.000
    O247    O    0.37921   0.16854   0.21954   1.000
    O248    O    0.49177   0.05538   0.20892   1.000
    O249    O    0.55755   0.11727   0.23137   1.000
    O250    O    0.46822   0.12355   0.23531   1.000
    O251    O    0.94460   0.43640   0.20890   1.000
    O252    O    0.88270   0.44030   0.23138   1.000
    O253    O    0.87641   0.34467   0.23530   1.000
    O254    O    0.56361   0.50824   0.20895   1.000
    O255    O    0.55971   0.44242   0.23139   1.000
    O256    O    0.65530   0.53175   0.23531   1.000
    O257    O    0.55042   0.36591   0.25492   1.000
    O258    O    0.63400   0.18446   0.25492   1.000
    O259    O    0.81549   0.44957   0.25495   1.000
    O260    O    0.59659   0.11457   0.29728   1.000
    O261    O    0.51792   0.40335   0.29728   1.000
    O262    O    0.88541   0.48207   0.29729   1.000
    O263    O    0.72137   0.59922   0.32892   1.000
    O264    O    0.87780   0.27861   0.32892   1.000
    O265    O    0.40074   0.12214   0.32892   1.000
    O266    O    0.03660   0.54807   0.32230   1.000
    O267    O    0.45195   0.48859   0.32233   1.000
    O268    O    0.51142   0.96344   0.32233   1.000
    O269    O    0.47078   0.43360   0.34049   1.000
    O270    O    0.48730   0.37158   0.36685   1.000
    O271    O    0.56637   0.03721   0.34050   1.000
    O272    O    0.62835   0.11571   0.36686   1.000
    O273    O    0.96279   0.52922   0.34049   1.000
    O274    O    0.88427   0.51268   0.36689   1.000
    O275    O    0.03658   0.57564   0.38148   1.000
    O276    O    0.53900   0.96343   0.38150   1.000
    O277    O    0.42437   0.46101   0.38149   1.000
    O278    O    0.38541   0.07057   0.41941   1.000
    O279    O    0.68515   0.61451   0.41943   1.000
    O280    O    0.92936   0.31488   0.41943   1.000
    O281    O    0.49963   0.31695   0.39514   1.000
    O282    O    0.68295   0.18262   0.39515   1.000
    O283    O    0.81735   0.50035   0.39519   1.000
    O284    O    0.45725   0.33619   0.43423   1.000
    O285    O    0.66373   0.12102   0.43420   1.000
    O286    O    0.87893   0.54271   0.43427   1.000
    O287    O    0.38318   0.48197   0.42064   1.000
    O288    O    0.39411   0.42562   0.44833   1.000
    O289    O    0.09870   0.61681   0.42062   1.000
    O290    O    0.03145   0.60588   0.44834   1.000
    O291    O    0.51805   0.90130   0.42066   1.000
    O292    O    0.57437   0.96853   0.44835   1.000
    O293    O    0.39017   0.02693   0.48436   1.000
    O294    O    0.97300   0.36324   0.48437   1.000
    O295    O    0.63674   0.60974   0.48438   1.000
    O296    O    0.63712   0.04763   0.47469   1.000
    O297    O    0.69222   0.12077   0.49364   1.000
    O298    O    0.41047   0.36282   0.47471   1.000
    O299    O    0.42850   0.30767   0.49363   1.000
    O300    O    0.95232   0.58950   0.47474   1.000
    O301    O    0.87916   0.57144   0.49371   1.000
    O302    O    0.36321   0.39020   0.51562   1.000
    O303    O    0.02694   0.63675   0.51564   1.000
    O304    O    0.60977   0.97302   0.51563   1.000
    O305    O    0.12078   0.42851   0.50630   1.000
    O306    O    0.30773   0.87919   0.50632   1.000
    O307    O    0.57145   0.69227   0.50634   1.000
    O308    O    0.36282   0.95233   0.52527   1.000
    O309    O    0.42556   0.03144   0.55165   1.000
    O310    O    0.04762   0.41048   0.52527   1.000
    O311    O    0.96850   0.39414   0.55167   1.000
    O312    O    0.58949   0.63712   0.52529   1.000
    O313    O    0.60586   0.57434   0.55166   1.000
    O314    O    0.12101   0.45725   0.56573   1.000
    O315    O    0.33622   0.87895   0.56576   1.000
    O316    O    0.54270   0.66376   0.56576   1.000
    O317    O    0.31484   0.38545   0.58058   1.000
    O318    O    0.61451   0.92936   0.58057   1.000
    O319    O    0.07056   0.68513   0.58058   1.000
    O320    O    0.48186   0.09867   0.57934   1.000
    O321    O    0.61679   0.51799   0.57936   1.000
    O322    O    0.90126   0.38323   0.57938   1.000
    O323    O    0.46091   0.03655   0.61850   1.000
    O324    O    0.57560   0.53896   0.61851   1.000
    O325    O    0.96338   0.42439   0.61850   1.000
    O326    O    0.18260   0.49961   0.60481   1.000
    O327    O    0.11569   0.48731   0.63312   1.000
    O328    O    0.50032   0.68299   0.60485   1.000
    O329    O    0.51263   0.62836   0.63313   1.000
    O330    O    0.31700   0.81736   0.60486   1.000
    O331    O    0.37159   0.88428   0.63314   1.000
    O332    O    0.59919   0.87780   0.67105   1.000
    O333    O    0.12211   0.72140   0.67088   1.000
    O334    O    0.27862   0.40078   0.67104   1.000
    O335    O    0.03718   0.47080   0.65949   1.000
    O336    O    0.96337   0.45197   0.67768   1.000
    O337    O    0.43355   0.96277   0.65951   1.000
    O338    O    0.48849   0.03655   0.67768   1.000
    O339    O    0.52917   0.56635   0.65950   1.000
    O340    O    0.54801   0.51136   0.67768   1.000
    O341    O    0.48201   0.59659   0.70271   1.000
    O342    O    0.11456   0.51793   0.70271   1.000
    O343    O    0.40334   0.88542   0.70273   1.000
    O344    O    0.12353   0.65534   0.76449   1.000
    O345    O    0.16855   0.78936   0.78028   1.000
    O346    O    0.34468   0.46823   0.76464   1.000
    O347    O    0.21070   0.37927   0.78042   1.000
    O348    O    0.53173   0.87642   0.76467   1.000
    O349    O    0.62072   0.83141   0.78043   1.000
    O350    O    0.18448   0.55042   0.74505   1.000
    O351    O    0.11728   0.55972   0.76861   1.000
    O352    O    0.44951   0.63402   0.74507   1.000
    O353    O    0.44025   0.55753   0.76862   1.000
    O354    O    0.36593   0.81553   0.74509   1.000
    O355    O    0.44240   0.88270   0.76863   1.000
    O356    O    0.28072   0.61189   0.79008   1.000
    O357    O    0.38808   0.66886   0.79010   1.000
    O358    O    0.33113   0.71930   0.79011   1.000
    O359    O    0.43637   0.49172   0.79107   1.000
    O360    O    0.50818   0.94458   0.79107   1.000
    O361    O    0.05538   0.56362   0.79108   1.000
    O362    O    0.11113   0.59349   0.83722   1.000
    O363    O    0.48233   0.88885   0.83724   1.000
    O364    O    0.40650   0.51762   0.83723   1.000
    O365    O    0.65390   0.78840   0.85472   1.000
    O366    O    0.13450   0.34609   0.85473   1.000
    O367    O    0.21162   0.86556   0.85476   1.000
    O368    O    0.34905   0.62278   0.86680   1.000
    O369    O    0.37724   0.72634   0.86680   1.000
    O370    O    0.27367   0.65094   0.86680   1.000
    O371    O    0.65286   0.03611   0.88420   1.000
    O372    O    0.38322   0.34703   0.88421   1.000
    O373    O    0.96381   0.61678   0.88421   1.000
    O374    O    0.64179   0.59978   0.88849   1.000
    O375    O    0.95793   0.35814   0.88849   1.000
    O376    O    0.40016   0.04199   0.88849   1.000
    O377    O    0.17129   0.62325   0.89038   1.000
    O378    O    0.09517   0.61539   0.90722   1.000
    O379    O    0.37673   0.54803   0.89038   1.000
    O380    O    0.38461   0.47977   0.90718   1.000
    O381    O    0.45196   0.82871   0.89039   1.000
    O382    O    0.52021   0.90482   0.90723   1.000
    O383    O    0.08417   0.35715   0.91154   1.000
    O384    O    0.64281   0.72701   0.91156   1.000
    O385    O    0.27302   0.91585   0.91155   1.000
    O386    O    0.60106   0.98171   0.92649   1.000
    O387    O    0.67792   0.05431   0.94545   1.000
    O388    O    0.38065   0.39888   0.92646   1.000
    O389    O    0.37637   0.32197   0.94546   1.000
    O390    O    0.01824   0.61936   0.92650   1.000
    O391    O    0.94561   0.62364   0.94546   1.000
    O392    O    0.34985   0.98789   0.93131   1.000
    O393    O    0.42599   0.06021   0.95029   1.000
    O394    O    0.01207   0.36193   0.93130   1.000
    O395    O    0.93971   0.36577   0.95029   1.000
    O396    O    0.63802   0.65014   0.93133   1.000
    O397    O    0.63418   0.57395   0.95031   1.000
    O398    O    0.74478   0.11685   0.96652   1.000
    O399    O    0.88305   0.62798   0.96655   1.000
    O400    O    0.37202   0.25506   0.96655   1.000
    O401    O    0.49226   0.12271   0.97243   1.000
    O402    O    0.87718   0.36953   0.97244   1.000
    O403    O    0.63042   0.50764   0.97246   1.000
    O404    O    0.24657   0.48775   0.74108   1.000
    O405    O    0.24115   0.75346   0.74095   1.000
    O406    O    0.51221   0.75880   0.74112   1.000
    O407    O    0.75339   0.51224   0.25886   1.000
    O408    O    0.75877   0.24654   0.25885   1.000
    O409    O    0.48773   0.24115   0.25886   1.000
loop_
    _geom_bond_atom_site_label_1
    _geom_bond_atom_site_label_2
    _geom_bond_distance
    _geom_bond_site_symmetry_2
    _ccdc_geom_bond_type
    C100   O188      0.54442      .   S
    C27    O188      0.54442      .   S
    C100   O189      0.69146      .   S
    C102   O189      0.69146      .   S
    C100   O190      0.70612  1_554   S
    C99    O190      0.70612      .   S
    C83    O191      0.54432      .   S
    C18    O191      0.54432      .   S
    C83    O192      0.69147      .   S
    C85    O192      0.69147      .   S
    C83    O193      0.70542  1_554   S
    C82    O193      0.70542      .   S
    C66    O194      0.54435      .   S
    C9     O194      0.54435      .   S
    C66    O195      0.69147      .   S
    C68    O195      0.69147      .   S
    C66    O196      0.70547  1_554   S
    C65    O196      0.70547      .   S
    C120   O197      0.54452      .   S
    C39    O197      0.54452      .   S
    C120   O198      0.69219      .   S
    C118   O198      0.69219      .   S
    C120   O199      0.70728  1_554   S
    C121   O199      0.70728      .   S
    C137   O200      0.54446      .   S
    C48    O200      0.54446      .   S
    C137   O201      0.69263      .   S
    C135   O201      0.69263      .   S
    C137   O202      0.70717  1_554   S
    C138   O202      0.70717      .   S
    C154   O203      0.54444      .   S
    C57    O203      0.54444      .   S
    C154   O204      0.69262      .   S
    C152   O204      0.69262      .   S
    C154   O205      0.70721  1_554   S
    C155   O205      0.70721      .   S
    C87    O206      0.70746      .   S
    C85    O206      0.70746  1_565   S
    C87    O207      0.70401      .   S
    C88    O207      0.70401      .   S
    C87    O208      0.70717      .   S
    C86    O208      0.70717  1_556   S
    C70    O209      0.70769      .   S
    C68    O209      0.70769  1_455   S
    C70    O210      0.70396      .   S
    C71    O210      0.70396      .   S
    C70    O211      0.70723      .   S
    C69    O211      0.70723  1_556   S
    C104   O212      0.70755      .   S
    C102   O212      0.70755      .   S
    C104   O213      0.70392      .   S
    C105   O213      0.70392      .   S
    C104   O214      0.70725      .   S
    C103   O214      0.70725  1_556   S
    C150   O215      0.70630      .   S
    C152   O215      0.70630      .   S
    C150   O216      0.74368      .   S
    C149   O216      0.74368      .   S
    C150   O217      0.70512      .   S
    C151   O217      0.70512  1_556   S
    C116   O218      0.70626      .   S
    C118   O218      0.70626  1_455   S
    C116   O219      0.74344      .   S
    C115   O219      0.74344      .   S
    C116   O220      0.70543      .   S
    C117   O220      0.70543  1_556   S
    C133   O221      0.70618      .   S
    C135   O221      0.70618  1_565   S
    C133   O222      0.74344      .   S
    C132   O222      0.74344      .   S
    C133   O223      0.70548      .   S
    C134   O223      0.70548  1_556   S
    C85    O224      0.54471      .   S
    C20    O224      0.54471      .   S
    C68    O225      0.54465      .   S
    C11    O225      0.54465      .   S
    C102   O226      0.54466      .   S
    C29    O226      0.54466      .   S
    C118   O227      0.54528      .   S
    C37    O227      0.54528      .   S
    C135   O228      0.54007      .   S
    C46    O228      0.54007      .   S
    C152   O229      0.54477      .   S
    C55    O229      0.54477      .   S
    C185   O230      0.63811      .   S
    C132   O230      0.63811      .   S
    C185   O231      1.03480      .   S
    C1     O231      1.03480      .   S
    C187   O232      0.63808      .   S
    C149   O232      0.63808      .   S
    C187   O233      1.03443      .   S
    C1     O233      1.03443      .   S
    C183   O234      0.63809      .   S
    C115   O234      0.63809      .   S
    C183   O235      1.03443      .   S
    C1     O235      1.03443      .   S
    C88    O236      0.58727      .   S
    C167   O236      0.58727      .   S
    C105   O237      0.58728      .   S
    C169   O237      0.58728      .   S
    C71    O238      0.58726      .   S
    C165   O238      0.58726      .   S
    C132   O239      0.71647      .   S
    C131   O239      0.71647      .   S
    C115   O240      0.71646      .   S
    C114   O240      0.71646      .   S
    C149   O241      0.71653      .   S
    C148   O241      0.71653      .   S
    C1     O242      1.07302      .   S
    C186   O242      1.07302      .   S
    C1     O243      1.07267      .   S
    C184   O243      1.07267      .   S
    C1     O244      1.07403      .   S
    C182   O244      1.07403      .   S
    C167   O245      1.09878      .   S
    C2     O245      1.09878      .   S
    C165   O246      1.09924      .   S
    C4     O246      1.09924      .   S
    C169   O247      1.09896      .   S
    C3     O247      1.09896      .   S
    C131   O248      0.54375      .   S
    C44    O248      0.54375      .   S
    C131   O249      0.71471      .   S
    C130   O249      0.71471      .   S
    C131   O250      1.21915      .   S
    C3     O250      1.21915      .   S
    C114   O251      0.54370      .   S
    C35    O251      0.54370      .   S
    C114   O252      0.71462      .   S
    C113   O252      0.71462      .   S
    C114   O253      1.21967      .   S
    C2     O253      1.21967      .   S
    C148   O254      0.54375      .   S
    C53    O254      0.54375      .   S
    C148   O255      0.71463      .   S
    C147   O255      0.71463      .   S
    C148   O256      1.21920      .   S
    C4     O256      1.21920      .   S
    C186   O257      0.64628      .   S
    C147   O257      0.64628      .   S
    C184   O258      0.64634      .   S
    C130   O258      0.64634      .   S
    C182   O259      0.64623      .   S
    C113   O259      0.64623      .   S
    C130   O260      0.74022      .   S
    C140   O260      0.74022      .   S
    C147   O261      0.74025      .   S
    C157   O261      0.74025      .   S
    C113   O262      0.74043      .   S
    C123   O262      0.74043      .   S
    C4     O263      1.09335      .   S
    C168   O263      1.09335      .   S
    C2     O264      1.09354      .   S
    C164   O264      1.09354      .   S
    C3     O265      1.09319      .   S
    C166   O265      1.09319      .   S
    C41    O266      0.54461      .   S
    C125   O266      0.54461      .   S
    C59    O267      0.54458      .   S
    C159   O267      0.54458      .   S
    C50    O268      0.54459      .   S
    C142   O268      0.54459      .   S
    C157   O269      0.70647      .   S
    C159   O269      0.70647      .   S
    C157   O270      0.70813      .   S
    C158   O270      0.70813      .   S
    C140   O271      0.70640      .   S
    C142   O271      0.70640  1_565   S
    C140   O272      0.70813      .   S
    C141   O272      0.70813      .   S
    C123   O273      0.70659      .   S
    C125   O273      0.70659  1_455   S
    C123   O274      0.70807      .   S
    C124   O274      0.70807      .   S
    C125   O275      0.69209      .   S
    C127   O275      0.69209      .   S
    C142   O276      0.69205      .   S
    C144   O276      0.69205      .   S
    C159   O277      0.69191      .   S
    C161   O277      0.69191      .   S
    C166   O278      0.58746      .   S
    C95    O278      0.58746      .   S
    C168   O279      0.58744      .   S
    C112   O279      0.58744      .   S
    C164   O280      0.58743      .   S
    C78    O280      0.58743      .   S
    C58    O281      0.54415      .   S
    C158   O281      0.54415      .   S
    C49    O282      0.54414      .   S
    C141   O282      0.54414      .   S
    C40    O283      0.54414      .   S
    C124   O283      0.54414      .   S
    C158   O284      0.69087      .   S
    C160   O284      0.69087      .   S
    C141   O285      0.69033      .   S
    C143   O285      0.69033      .   S
    C124   O286      0.69084      .   S
    C126   O286      0.69084      .   S
    C161   O287      0.54466      .   S
    C61    O287      0.54466      .   S
    C161   O288      0.70862      .   S
    C162   O288      0.70862      .   S
    C127   O289      0.54464      .   S
    C43    O289      0.54464      .   S
    C127   O290      0.70842      .   S
    C128   O290      0.70842      .   S
    C144   O291      0.54465      .   S
    C52    O291      0.54465      .   S
    C144   O292      0.70847      .   S
    C145   O292      0.70847      .   S
    C95    O293      0.70340      .   S
    C94    O293      0.70340      .   S
    C78    O294      0.70342      .   S
    C77    O294      0.70342      .   S
    C112   O295      0.70346      .   S
    C111   O295      0.70346      .   S
    C143   O296      0.70809      .   S
    C145   O296      0.70809  1_565   S
    C143   O297      0.54521      .   S
    C51    O297      0.54521      .   S
    C160   O298      0.70810      .   S
    C162   O298      0.70810      .   S
    C160   O299      0.54442      .   S
    C60    O299      0.54442      .   S
    C126   O300      0.70821      .   S
    C128   O300      0.70821  1_455   S
    C126   O301      0.54475      .   S
    C42    O301      0.54475      .   S
    C162   O302      0.70336      .   S
    C163   O302      0.70336      .   S
    C128   O303      0.70349      .   S
    C129   O303      0.70349      .   S
    C145   O304      0.70336      .   S
    C146   O304      0.70336      .   S
    C15    O305      0.54476      .   S
    C75    O305      0.54476      .   S
    C24    O306      0.54477      .   S
    C92    O306      0.54477      .   S
    C33    O307      0.54475      .   S
    C109   O307      0.54475      .   S
    C94    O308      0.70800  1_545   S
    C92    O308      0.70800      .   S
    C94    O309      0.70844      .   S
    C93    O309      0.70844      .   S
    C77    O310      0.70824  1_655   S
    C75    O310      0.70824      .   S
    C77    O311      0.70848      .   S
    C76    O311      0.70848      .   S
    C111   O312      0.70808      .   S
    C109   O312      0.70808      .   S
    C111   O313      0.70842      .   S
    C110   O313      0.70842      .   S
    C75    O314      0.69082      .   S
    C73    O314      0.69082      .   S
    C92    O315      0.69084      .   S
    C90    O315      0.69084      .   S
    C109   O316      0.69086      .   S
    C107   O316      0.69086      .   S
    C163   O317      0.58746      .   S
    C174   O317      0.58746      .   S
    C146   O318      0.58745      .   S
    C172   O318      0.58745      .   S
    C129   O319      0.58739      .   S
    C170   O319      0.58739      .   S
    C25    O320      0.54464      .   S
    C93    O320      0.54464      .   S
    C34    O321      0.54464      .   S
    C110   O321      0.54464      .   S
    C16    O322      0.54465      .   S
    C76    O322      0.54465      .   S
    C93    O323      0.69203      .   S
    C91    O323      0.69203      .   S
    C110   O324      0.69210      .   S
    C108   O324      0.69210      .   S
    C76    O325      0.69173      .   S
    C74    O325      0.69173      .   S
    C73    O326      0.54415      .   S
    C13    O326      0.54415      .   S
    C73    O327      0.70815      .   S
    C72    O327      0.70815      .   S
    C107   O328      0.54414      .   S
    C31    O328      0.54414      .   S
    C107   O329      0.70812      .   S
    C106   O329      0.70812      .   S
    C90    O330      0.54414      .   S
    C22    O330      0.54414      .   S
    C90    O331      0.70810      .   S
    C89    O331      0.70810      .   S
    C172   O332      1.09309      .   S
    C6     O332      1.09309      .   S
    C170   O333      1.09044      .   S
    C5     O333      1.09044      .   S
    C174   O334      1.09250      .   S
    C7     O334      1.09250      .   S
    C74    O335      0.70670  1_655   S
    C72    O335      0.70670      .   S
    C74    O336      0.54488      .   S
    C14    O336      0.54488      .   S
    C91    O337      0.70635  1_545   S
    C89    O337      0.70635      .   S
    C91    O338      0.54463      .   S
    C23    O338      0.54463      .   S
    C108   O339      0.70647      .   S
    C106   O339      0.70647      .   S
    C108   O340      0.54458      .   S
    C32    O340      0.54458      .   S
    C106   O341      0.74030      .   S
    C96    O341      0.74030      .   S
    C72    O342      0.74031      .   S
    C62    O342      0.74031      .   S
    C89    O343      0.74034      .   S
    C79    O343      0.74034      .   S
    C5     O344      1.22090      .   S
    C63    O344      1.22090      .   S
    C5     O345      1.10145      .   S
    C173   O345      1.10145      .   S
    C7     O346      1.21981      .   S
    C97    O346      1.21981      .   S
    C7     O347      1.09952      .   S
    C171   O347      1.09952      .   S
    C6     O348      1.21917      .   S
    C80    O348      1.21917      .   S
    C6     O349      1.09874      .   S
    C175   O349      1.09874      .   S
    C62    O350      0.64630      .   S
    C176   O350      0.64630      .   S
    C62    O351      0.71464      .   S
    C63    O351      0.71464      .   S
    C96    O352      0.64628      .   S
    C180   O352      0.64628      .   S
    C96    O353      0.71468      .   S
    C97    O353      0.71468      .   S
    C79    O354      0.64624      .   S
    C178   O354      0.64624      .   S
    C79    O355      0.71461      .   S
    C80    O355      0.71461      .   S
    C176   O356      1.07374      .   S
    C0     O356      1.07374      .   S
    C180   O357      1.07313      .   S
    C0     O357      1.07313      .   S
    C178   O358      1.07295      .   S
    C0     O358      1.07295      .   S
    C26    O359      0.54376      .   S
    C97    O359      0.54376      .   S
    C17    O360      0.54374      .   S
    C80    O360      0.54374      .   S
    C8     O361      0.54375      .   S
    C63    O361      0.54375      .   S
    C63    O362      0.71650      .   S
    C64    O362      0.71650      .   S
    C80    O363      0.71655      .   S
    C81    O363      0.71655      .   S
    C97    O364      0.71644      .   S
    C98    O364      0.71644      .   S
    C175   O365      0.58750      .   S
    C156   O365      0.58750      .   S
    C171   O366      0.58723      .   S
    C122   O366      0.58723      .   S
    C173   O367      0.58730      .   S
    C139   O367      0.58730      .   S
    C0     O368      1.03437      .   S
    C181   O368      1.03437      .   S
    C0     O369      1.03463      .   S
    C179   O369      1.03463      .   S
    C0     O370      1.03437      .   S
    C177   O370      1.03437      .   S
    C19    O371      0.54472      .   S
    C84    O371      0.54472      .   S
    C28    O372      0.54472      .   S
    C101   O372      0.54472      .   S
    C10    O373      0.54472      .   S
    C67    O373      0.54472      .   S
    C56    O374      0.54494      .   S
    C153   O374      0.54494      .   S
    C38    O375      0.54468      .   S
    C119   O375      0.54468      .   S
    C47    O376      0.54464      .   S
    C136   O376      0.54464      .   S
    C64    O377      0.63809      .   S
    C177   O377      0.63809      .   S
    C64    O378      0.74343      .   S
    C65    O378      0.74343      .   S
    C98    O379      0.63810      .   S
    C181   O379      0.63810      .   S
    C98    O380      0.74295      .   S
    C99    O380      0.74295      .   S
    C81    O381      0.63795      .   S
    C179   O381      0.63795      .   S
    C81    O382      0.74348      .   S
    C82    O382      0.74348      .   S
    C122   O383      0.70396      .   S
    C121   O383      0.70396      .   S
    C156   O384      0.70400      .   S
    C155   O384      0.70400      .   S
    C139   O385      0.70398      .   S
    C138   O385      0.70398      .   S
    C84    O386      0.70618  1_545   S
    C82    O386      0.70618      .   S
    C84    O387      0.69265      .   S
    C86    O387      0.69265      .   S
    C101   O388      0.70609      .   S
    C99    O388      0.70609      .   S
    C101   O389      0.69264      .   S
    C103   O389      0.69264      .   S
    C67    O390      0.70638  1_655   S
    C65    O390      0.70638      .   S
    C67    O391      0.69264      .   S
    C69    O391      0.69264      .   S
    C136   O392      0.70749  1_545   S
    C138   O392      0.70749      .   S
    C136   O393      0.69146      .   S
    C134   O393      0.69146      .   S
    C119   O394      0.70768  1_655   S
    C121   O394      0.70768      .   S
    C119   O395      0.69148      .   S
    C117   O395      0.69148      .   S
    C153   O396      0.70752      .   S
    C155   O396      0.70752      .   S
    C153   O397      0.69151      .   S
    C151   O397      0.69151      .   S
    C21    O398      0.54453      .   S
    C86    O398      0.54453      .   S
    C12    O399      0.54452      .   S
    C69    O399      0.54452      .   S
    C30    O400      0.54452      .   S
    C103   O400      0.54452      .   S
    C45    O401      0.54442      .   S
    C134   O401      0.54442      .   S
    C36    O402      0.54442      .   S
    C117   O402      0.54442      .   S
    C54    O403      0.54443      .   S
    C151   O403      0.54443      .   S
    C176   O404      1.27051      .   S
    C7     O404      1.27051      .   S
    C178   O405      1.27169      .   S
    C5     O405      1.27169      .   S
    C180   O406      1.27144      .   S
    C6     O406      1.27144      .   S
    C182   O407      1.27064      .   S
    C4     O407      1.27064      .   S
    C184   O408      1.27115      .   S
    C2     O408      1.27115      .   S
    C186   O409      1.27118      .   S
    C3     O409      1.27118      .   S
