# CIF file generated by openbabel 2.4.90, see http://openbabel.sf.net
data_I
_chemical_name_common ''
_cell_length_a 7.6955
_cell_length_b 14.667
_cell_length_c 15.813
_cell_angle_alpha 90.02
_cell_angle_beta 90.05
_cell_angle_gamma 92.045
_space_group_name_H-M_alt 'P 1'
_space_group_name_Hall 'P 1'
loop_
    _symmetry_equiv_pos_as_xyz
    x,y,z
loop_
    _atom_site_label
    _atom_site_type_symbol
    _atom_site_fract_x
    _atom_site_fract_y
    _atom_site_fract_z
    _atom_site_occupancy
    N0      N    0.94670   0.43175   0.73482   1.000
    N1      N    0.81638   0.23061   0.95865   1.000
    N2      N    0.55271   0.06861   0.23451   1.000
    N3      N    0.68181   0.26950   0.45864   1.000
    N4      N    0.05329   0.56825   0.26516   1.000
    N5      N    0.18360   0.76939   0.04133   1.000
    N6      N    0.44727   0.93139   0.76548   1.000
    N7      N    0.31818   0.73050   0.54135   1.000
