# CIF file generated by openbabel 2.4.90, see http://openbabel.sf.net
data_I
_chemical_name_common ''
_cell_length_a 7.6955
_cell_length_b 14.667
_cell_length_c 15.813
_cell_angle_alpha 90.02
_cell_angle_beta 90.05
_cell_angle_gamma 92.045
_space_group_name_H-M_alt 'P 1'
_space_group_name_Hall 'P 1'
loop_
    _symmetry_equiv_pos_as_xyz
    x,y,z
loop_
    _atom_site_label
    _atom_site_type_symbol
    _atom_site_fract_x
    _atom_site_fract_y
    _atom_site_fract_z
    _atom_site_occupancy
    Ba0     Ba   0.74498   0.43267   0.56092   1.000
    Ba1     Ba   0.24567   0.93255   0.93892   1.000
    Ba2     Ba   0.25501   0.56733   0.43906   1.000
    Ba3     Ba   0.75431   0.06745   0.06106   1.000
