# CIF file generated by openbabel 2.4.90, see http://openbabel.sf.net
data_I
_chemical_name_common ''
_cell_length_a 7.6955
_cell_length_b 14.667
_cell_length_c 15.813
_cell_angle_alpha 90.02
_cell_angle_beta 90.05
_cell_angle_gamma 92.045
_space_group_name_H-M_alt 'P 1'
_space_group_name_Hall 'P 1'
loop_
    _symmetry_equiv_pos_as_xyz
    x,y,z
loop_
    _atom_site_label
    _atom_site_type_symbol
    _atom_site_fract_x
    _atom_site_fract_y
    _atom_site_fract_z
    _atom_site_occupancy
    Ba0     Ba   0.74498   0.43267   0.56092   1.000
    Ba1     Ba   0.24567   0.93255   0.93892   1.000
    Ba2     Ba   0.25501   0.56733   0.43906   1.000
    Ba3     Ba   0.75431   0.06745   0.06106   1.000
    C4      C    0.73984   0.87032   0.96672   1.000
    C5      C    0.46881   0.52081   0.27970   1.000
    C6      C    0.76158   0.62995   0.46655   1.000
    C7      C    0.03177   0.97960   0.77951   1.000
    C8      C    0.26014   0.12968   0.03326   1.000
    C9      C    0.53120   0.47919   0.72029   1.000
    C10     C    0.23841   0.37005   0.53343   1.000
    C11     C    0.96822   0.02040   0.22046   1.000
    O12     O    0.87881   0.91904   0.96694   1.000
    O13     O    0.59028   0.89880   0.98534   1.000
    O14     O    0.45231   0.60498   0.29611   1.000
    O15     O    0.40729   0.45419   0.32247   1.000
    O16     O    0.62248   0.58132   0.46683   1.000
    O17     O    0.91114   0.60145   0.48524   1.000
    O18     O    0.04614   0.89536   0.79616   1.000
    O19     O    0.09526   0.04600   0.82206   1.000
    O20     O    0.12118   0.08095   0.03305   1.000
    O21     O    0.40971   0.10120   0.00000   1.000
    O22     O    0.54769   0.39502   0.70387   1.000
    O23     O    0.59271   0.54582   0.67751   1.000
    O24     O    0.37752   0.41868   0.53315   1.000
    O25     O    0.08886   0.39856   0.51474   1.000
    O26     O    0.95382   0.10465   0.20382   1.000
    O27     O    0.90471   0.95399   0.17792   1.000
    Og28    Og   0.74476   0.83676   0.96063   1.000
    Og29    Og   0.50116   0.51335   0.25298   1.000
    Og30    Og   0.75661   0.66351   0.46042   1.000
    Og31    Og   0.99949   0.98640   0.75278   1.000
    Og32    Og   0.25522   0.16325   0.03935   1.000
    Og33    Og   0.49886   0.48665   0.74700   1.000
    Og34    Og   0.24339   0.33649   0.53956   1.000
    Og35    Og   0.00050   0.01289   0.24720   1.000
loop_
    _geom_bond_atom_site_label_1
    _geom_bond_atom_site_label_2
    _geom_bond_distance
    _geom_bond_site_symmetry_2
    _ccdc_geom_bond_type
    O21    C8        1.34576      .   S
    O20    C8        1.26480      .   S
    Ba3    O27       2.76757  1_545   S
    Ba3    O26       2.77208      .   S
    O27    C11       1.26685  1_565   S
    O26    C11       1.27214      .   S
    C5     O14       1.27222      .   S
    C5     O15       1.26669      .   S
    O14    Ba2       2.76899      .   S
    O15    Ba2       2.76886      .   S
    C6     O16       1.26501      .   S
    C6     O17       1.27299      .   S
    O25    C10       1.27299      .   S
    O24    C10       1.26502      .   S
    Ba0    O23       2.76884      .   S
    Ba0    O22       2.76895      .   S
    O23    C9        1.26670      .   S
    O22    C9        1.27223      .   S
    C7     O18       1.27214      .   S
    C7     O19       1.26684  1_565   S
    O18    Ba1       2.77212      .   S
    O19    Ba1       2.76757  1_545   S
    C4     O12       1.26481      .   S
    C4     O13       1.27305      .   S
    O12    Ba3       2.83200  1_566   S
    O12    Ba1       2.85804  1_655   S
    O13    Ba3       2.98639  1_566   S
    O13    Ba1       2.81194      .   S
    O16    Ba0       2.82883      .   S
    O16    Ba2       2.86150      .   S
    O17    Ba0       2.99559      .   S
    O17    Ba2       2.80782  1_655   S
    O20    Ba3       2.85807  1_455   S
    O20    Ba1       2.83202  1_544   S
    O21    Ba3       2.88086      .   S
    O21    Ba1       2.90141  1_544   S
    O24    Ba0       2.86140      .   S
    O24    Ba2       2.82887      .   S
    O25    Ba0       2.80790  1_455   S
    O25    Ba2       2.99549      .   S
    C4     Og28      0.50436      .   S
    C5     Og29      0.50439      .   S
    C6     Og30      0.50443      .   S
    C7     Og31      0.50202  1_455   S
    C8     Og32      0.50436      .   S
    C9     Og33      0.50438      .   S
    C10    Og34      0.50443      .   S
    C11    Og35      0.50439  1_655   S
