# CIF file generated by openbabel 2.4.90, see http://openbabel.sf.net
data_I
_chemical_name_common ''
_cell_length_a 7.6955
_cell_length_b 14.667
_cell_length_c 15.813
_cell_angle_alpha 90.02
_cell_angle_beta 90.05
_cell_angle_gamma 92.045
_space_group_name_H-M_alt 'P 1'
_space_group_name_Hall 'P 1'
loop_
    _symmetry_equiv_pos_as_xyz
    x,y,z
loop_
    _atom_site_label
    _atom_site_type_symbol
    _atom_site_fract_x
    _atom_site_fract_y
    _atom_site_fract_z
    _atom_site_occupancy
    C0      C    0.73984   0.87032   0.96672   1.000
    C1      C    0.46881   0.52081   0.27970   1.000
    C2      C    0.76158   0.62995   0.46655   1.000
    C3      C    0.03177   0.97960   0.77951   1.000
    C4      C    0.26014   0.12968   0.03326   1.000
    C5      C    0.53120   0.47919   0.72029   1.000
    C6      C    0.23841   0.37005   0.53343   1.000
    C7      C    0.96822   0.02040   0.22046   1.000
