# CIF file generated by openbabel 2.4.90, see http://openbabel.sf.net
data_I
_chemical_name_common ''
_cell_length_a 7.6955
_cell_length_b 14.667
_cell_length_c 15.813
_cell_angle_alpha 90.02
_cell_angle_beta 90.05
_cell_angle_gamma 92.045
_space_group_name_H-M_alt 'P 1'
_space_group_name_Hall 'P 1'
loop_
    _symmetry_equiv_pos_as_xyz
    x,y,z
loop_
    _atom_site_label
    _atom_site_type_symbol
    _atom_site_fract_x
    _atom_site_fract_y
    _atom_site_fract_z
    _atom_site_occupancy
    Zr0     Zr   0.75431   0.06745   0.06106   1.000
    Zr1     Zr   0.74498   0.43267   0.56092   1.000
    Zr2     Zr   0.24567   0.93255   0.93892   1.000
    Zr3     Zr   0.25501   0.56733   0.43906   1.000
    N4      N    0.28836   0.42406   0.97081   1.000
    N5      N    0.78897   0.92427   0.52884   1.000
    N6      N    0.21102   0.07561   0.47115   1.000
    N7      N    0.71164   0.57594   0.02913   1.000
    C8      C    0.44280   0.52666   0.29942   1.000
    O9      O    0.52864   0.53472   0.21690   1.000
    C10     C    0.76507   0.60424   0.47288   1.000
    O11     O    0.92407   0.59431   0.46751   1.000
    O12     O    0.60190   0.58928   0.46291   1.000
    O13     O    0.76830   0.70326   0.48299   1.000
    C14     C    0.55720   0.47334   0.70056   1.000
    O15     O    0.47136   0.46528   0.78307   1.000
    C16     C    0.23493   0.39576   0.52711   1.000
    O17     O    0.23169   0.29671   0.51700   1.000
    O18     O    0.07593   0.40569   0.53247   1.000
    O19     O    0.39809   0.41072   0.53707   1.000
    C20     C    0.73631   0.89606   0.97300   1.000
    O21     O    0.89927   0.91093   0.96297   1.000
    O22     O    0.57714   0.90587   0.96757   1.000
    O23     O    0.73287   0.79701   0.98318   1.000
    C24     C    0.05773   0.97366   0.79925   1.000
    O25     O    0.97194   0.96535   0.71668   1.000
    C26     C    0.26368   0.10394   0.02210   1.000
    O27     O    0.10071   0.08907   0.03458   1.000
    O28     O    0.42284   0.09413   0.02632   1.000
    O29     O    0.26712   0.20299   0.01435   1.000
    C30     C    0.94225   0.02635   0.20074   1.000
    O31     O    0.02804   0.03436   0.28330   1.000
    O32     O    0.60740   0.46244   0.66318   1.000
    O33     O    0.76048   0.55814   0.49568   1.000
    O34     O    0.10796   0.96264   0.83663   1.000
    O35     O    0.23952   0.44187   0.50431   1.000
    O36     O    0.39260   0.53756   0.33680   1.000
    O37     O    0.25962   0.05788   0.99991   1.000
    O38     O    0.89202   0.03737   0.16335   1.000
    O39     O    0.74037   0.94212   0.99580   1.000
loop_
    _geom_bond_atom_site_label_1
    _geom_bond_atom_site_label_2
    _geom_bond_distance
    _geom_bond_site_symmetry_2
    _ccdc_geom_bond_type
    C8     O9        1.46604      .   S
    N7     O9        3.33360      .   S
    C10    O11       1.24036      .   S
    Zr3    O11       2.63034  1_455   S
    C10    O12       1.27652      .   S
    Zr3    O12       2.70356      .   S
    C10    O13       1.46036      .   S
    N5     O13       3.31969      .   S
    C14    O15       1.46590      .   S
    N4     O15       3.33319      .   S
    C16    O17       1.46079      .   S
    N6     O17       3.32097      .   S
    C16    O18       1.24038      .   S
    Zr1    O18       2.63040  1_655   S
    C16    O19       1.27650      .   S
    Zr1    O19       2.70349      .   S
    C20    O21       1.27529      .   S
    Zr2    O21       2.70049  1_455   S
    C20    O22       1.24129      .   S
    Zr2    O22       2.63333      .   S
    C20    O23       1.46099      .   S
    N7     O23       3.32139  1_554   S
    C24    O25       1.46552  1_455   S
    N5     O25       3.33167      .   S
    C26    O27       1.28071      .   S
    Zr0    O27       2.70625  1_655   S
    C26    O28       1.24011      .   S
    Zr0    O28       2.65152      .   S
    C26    O29       1.45727      .   S
    N4     O29       3.31324  1_556   S
    C30    O31       1.46525  1_655   S
    N6     O31       3.33213      .   S
    Zr1    O32       1.99052      .   S
    C14    O32       0.72721      .   S
    Zr1    O33       2.10965      .   S
    C10    O33       0.76618      .   S
    C24    O34       0.72744      .   S
    Zr2    O34       1.99125      .   S
    Zr3    O35       2.10963      .   S
    C16    O35       0.76617      .   S
    Zr3    O36       1.99056      .   S
    C8     O36       0.72722      .   S
    C26    O37       0.76086  1_554   S
    Zr2    O37       2.07490  1_565   S
    C30    O38       0.72743      .   S
    Zr0    O38       1.99123      .   S
    Zr0    O39       2.10714  1_544   S
    C20    O39       0.76536      .   S
