# CIF file generated by openbabel 2.4.90, see http://openbabel.sf.net
data_I
_chemical_name_common ''
_cell_length_a 7.6955
_cell_length_b 14.667
_cell_length_c 15.813
_cell_angle_alpha 90.02
_cell_angle_beta 90.05
_cell_angle_gamma 92.045
_space_group_name_H-M_alt 'P 1'
_space_group_name_Hall 'P 1'
loop_
    _symmetry_equiv_pos_as_xyz
    x,y,z
loop_
    _atom_site_label
    _atom_site_type_symbol
    _atom_site_fract_x
    _atom_site_fract_y
    _atom_site_fract_z
    _atom_site_occupancy
    Zr0     Zr   0.75431   0.06745   0.06106   1.000
    Zr1     Zr   0.74498   0.43267   0.56092   1.000
    Zr2     Zr   0.24567   0.93255   0.93892   1.000
    Zr3     Zr   0.25501   0.56733   0.43906   1.000
    N4      N    0.28836   0.42406   0.97081   1.000
    N5      N    0.78897   0.92427   0.52884   1.000
    N6      N    0.44727   0.93139   0.76548   1.000
    N7      N    0.21102   0.07561   0.47115   1.000
    N8      N    0.71164   0.57594   0.02913   1.000
    N9      N    0.31818   0.73050   0.54135   1.000
    N10     N    0.81638   0.23061   0.95865   1.000
    N11     N    0.18360   0.76939   0.04133   1.000
    N12     N    0.68181   0.26950   0.45864   1.000
    N13     N    0.94670   0.43175   0.73482   1.000
    N14     N    0.05329   0.56825   0.26516   1.000
    N15     N    0.55271   0.06861   0.23451   1.000
    C16     C    0.44280   0.52666   0.29942   1.000
    O17     O    0.52864   0.53472   0.21690   1.000
    O18     O    0.38697   0.51871   0.34010   1.000
    O19     O    0.39823   0.55640   0.33351   1.000
    C20     C    0.76507   0.60424   0.47288   1.000
    O21     O    0.79656   0.56065   0.49798   1.000
    O22     O    0.92407   0.59431   0.46751   1.000
    O23     O    0.72440   0.55562   0.49338   1.000
    O24     O    0.60190   0.58928   0.46291   1.000
    O25     O    0.76830   0.70326   0.48299   1.000
    C26     C    0.55720   0.47334   0.70056   1.000
    O27     O    0.61302   0.48129   0.65989   1.000
    O28     O    0.60177   0.44360   0.66648   1.000
    O29     O    0.47136   0.46528   0.78307   1.000
    C30     C    0.23493   0.39576   0.52711   1.000
    O31     O    0.23169   0.29671   0.51700   1.000
    O32     O    0.07593   0.40569   0.53247   1.000
    O33     O    0.20343   0.43935   0.50200   1.000
    O34     O    0.39809   0.41072   0.53707   1.000
    O35     O    0.27560   0.44438   0.50661   1.000
    Zr36    Zr   0.14775   0.60629   0.11018   1.000
    O37     O    0.10550   0.58712   0.17870   1.000
    O38     O    0.16434   0.67818   0.07825   1.000
    O39     O    0.20285   0.54679   0.05159   1.000
    O40     O    0.19348   0.53133   0.06648   1.000
    Zr41    Zr   0.85226   0.39371   0.88980   1.000
    O42     O    0.83566   0.32182   0.92173   1.000
    O43     O    0.89450   0.41288   0.82128   1.000
    O44     O    0.80652   0.46867   0.93349   1.000
    O45     O    0.79716   0.45321   0.94839   1.000
    C46     C    0.73631   0.89606   0.97300   1.000
    O47     O    0.77643   0.94465   0.99350   1.000
    O48     O    0.89927   0.91093   0.96297   1.000
    O49     O    0.70430   0.93959   0.99810   1.000
    O50     O    0.57714   0.90587   0.96757   1.000
    O51     O    0.73287   0.79701   0.98318   1.000
    C52     C    0.05773   0.97366   0.79925   1.000
    O53     O    0.11410   0.98147   0.83987   1.000
    O54     O    0.10182   0.94380   0.83339   1.000
    O55     O    0.97194   0.96535   0.71668   1.000
    C56     C    0.26368   0.10394   0.02210   1.000
    O57     O    0.10071   0.08907   0.03458   1.000
    O58     O    0.22355   0.05535   0.00405   1.000
    O59     O    0.42284   0.09413   0.02632   1.000
    O60     O    0.29568   0.06041   0.99578   1.000
    O61     O    0.26712   0.20299   0.01435   1.000
    C62     C    0.94225   0.02635   0.20074   1.000
    O63     O    0.02804   0.03436   0.28330   1.000
    O64     O    0.89816   0.05620   0.16659   1.000
    O65     O    0.88588   0.01853   0.16011   1.000
    Zr66    Zr   0.64685   0.10643   0.38960   1.000
    O67     O    0.66305   0.17831   0.42161   1.000
    O68     O    0.60474   0.08735   0.32103   1.000
    O69     O    0.70249   0.04697   0.44815   1.000
    O70     O    0.69315   0.03149   0.43325   1.000
    Zr71    Zr   0.35314   0.89357   0.61038   1.000
    O72     O    0.30684   0.96848   0.56673   1.000
    O73     O    0.29749   0.95300   0.55183   1.000
    O74     O    0.33694   0.82169   0.57837   1.000
    O75     O    0.39525   0.91265   0.67895   1.000
loop_
    _geom_bond_atom_site_label_1
    _geom_bond_atom_site_label_2
    _geom_bond_distance
    _geom_bond_site_symmetry_2
    _ccdc_geom_bond_type
    C16    O17       1.46604      .   S
    N8     O17       3.33360      .   S
    C16    O18       0.78022      .   S
    Zr3    O18       2.01065      .   S
    C16    O19       0.78057      .   S
    Zr3    O19       2.01054      .   S
    C20    O21       0.79758      .   S
    Zr1    O21       2.14949      .   S
    C20    O22       1.24036      .   S
    Zr3    O22       2.63034  1_455   S
    C20    O23       0.83427      .   S
    Zr1    O23       2.10690      .   S
    C20    O24       1.27652      .   S
    Zr3    O24       2.70356      .   S
    C20    O25       1.46036      .   S
    N5     O25       3.31969      .   S
    C26    O27       0.78021      .   S
    Zr1    O27       2.01062      .   S
    C26    O28       0.78056      .   S
    Zr1    O28       2.01050      .   S
    C26    O29       1.46590      .   S
    N4     O29       3.33319      .   S
    C30    O31       1.46079      .   S
    N7     O31       3.32097      .   S
    C30    O32       1.24038      .   S
    Zr1    O32       2.63040  1_655   S
    C30    O33       0.79759      .   S
    Zr3    O33       2.14945      .   S
    C30    O34       1.27650      .   S
    Zr1    O34       2.70349      .   S
    C30    O35       0.83425      .   S
    Zr3    O35       2.10689      .   S
    Zr36   O37       1.16316      .   S
    N14    O37       1.44941      .   S
    Zr36   O38       1.17216      .   S
    N11    O38       1.46251      .   S
    Zr36   O39       1.35147      .   S
    N4     O39       2.32143  1_556   S
    Zr36   O40       1.35566      .   S
    N4     O40       2.31926  1_556   S
    Zr41   O42       1.17216      .   S
    N10    O42       1.46250      .   S
    Zr41   O43       1.16316      .   S
    N13    O43       1.44941      .   S
    Zr41   O44       1.35558      .   S
    N8     O44       2.31896  1_554   S
    Zr41   O45       1.35137      .   S
    N8     O45       2.32117  1_554   S
    C46    O47       0.83212      .   S
    Zr0    O47       2.10600  1_544   S
    C46    O48       1.27529      .   S
    Zr2    O48       2.70049  1_455   S
    C46    O49       0.79822      .   S
    Zr0    O49       2.14542  1_544   S
    C46    O50       1.24129      .   S
    Zr2    O50       2.63333      .   S
    C46    O51       1.46099      .   S
    N8     O51       3.32139  1_554   S
    C52    O53       0.78094      .   S
    Zr2    O53       2.01077      .   S
    C52    O54       0.78029      .   S
    Zr2    O54       2.01181      .   S
    C52    O55       1.46552  1_455   S
    N5     O55       3.33167      .   S
    C56    O57       1.28071      .   S
    Zr0    O57       2.70625  1_655   S
    C56    O58       0.81787      .   S
    Zr2    O58       2.08669  1_566   S
    C56    O59       1.24011      .   S
    Zr0    O59       2.65152      .   S
    C56    O60       0.80799  1_554   S
    Zr2    O60       2.10240  1_565   S
    C56    O61       1.45727      .   S
    N4     O61       3.31324  1_556   S
    C62    O63       1.46525  1_655   S
    N7     O63       3.33213      .   S
    C62    O64       0.78028      .   S
    Zr0    O64       2.01178      .   S
    C62    O65       0.78092      .   S
    Zr0    O65       2.01076      .   S
    Zr66   O67       1.17186      .   S
    N12    O67       1.46219      .   S
    Zr66   O68       1.16262      .   S
    N15    O68       1.44879      .   S
    Zr66   O69       1.35186      .   S
    N5     O69       2.32271  1_565   S
    Zr66   O70       1.35629      .   S
    N5     O70       2.32027  1_565   S
    Zr71   O72       1.35594      .   S
    N7     O72       2.31938  1_545   S
    Zr71   O73       1.35158      .   S
    N7     O73       2.32168  1_545   S
    Zr71   O74       1.17186      .   S
    N9     O74       1.46219      .   S
    Zr71   O75       1.16263      .   S
    N6     O75       1.44879      .   S
