# CIF file generated by openbabel 2.4.90, see http://openbabel.sf.net
data_I
_chemical_name_common ''
_cell_length_a 7.6955
_cell_length_b 14.667
_cell_length_c 15.813
_cell_angle_alpha 90.02
_cell_angle_beta 90.05
_cell_angle_gamma 92.045
_space_group_name_H-M_alt 'P 1'
_space_group_name_Hall 'P 1'
loop_
    _symmetry_equiv_pos_as_xyz
    x,y,z
loop_
    _atom_site_label
    _atom_site_type_symbol
    _atom_site_fract_x
    _atom_site_fract_y
    _atom_site_fract_z
    _atom_site_occupancy
    Zr0     Zr   0.75431   0.06745   0.06106   1.000
    Zr1     Zr   0.74498   0.43267   0.56092   1.000
    Zr2     Zr   0.24567   0.93255   0.93892   1.000
    Zr3     Zr   0.25501   0.56733   0.43906   1.000
    Zr4     Zr   0.82282   0.44032   0.92412   1.000
    Zr5     Zr   0.67663   0.05983   0.42388   1.000
    Zr6     Zr   0.17717   0.55968   0.07586   1.000
    Zr7     Zr   0.32336   0.94017   0.57610   1.000
    Zr8     Zr   0.73984   0.87032   0.96672   1.000
    Zr9     Zr   0.46881   0.52081   0.27970   1.000
    Zr10    Zr   0.90686   0.43294   0.80661   1.000
    Zr11    Zr   0.82709   0.30787   0.93868   1.000
    Zr12    Zr   0.76158   0.62995   0.46655   1.000
    Zr13    Zr   0.03177   0.97960   0.77951   1.000
    Zr14    Zr   0.59239   0.06722   0.30635   1.000
    Zr15    Zr   0.67154   0.19225   0.43857   1.000
    Zr16    Zr   0.26014   0.12968   0.03326   1.000
    Zr17    Zr   0.53120   0.47919   0.72029   1.000
    Zr18    Zr   0.09315   0.56706   0.19337   1.000
    Zr19    Zr   0.17293   0.69214   0.06131   1.000
    Zr20    Zr   0.23841   0.37005   0.53343   1.000
    Zr21    Zr   0.96822   0.02040   0.22046   1.000
    Zr22    Zr   0.40760   0.93278   0.69363   1.000
    Zr23    Zr   0.32846   0.80776   0.56141   1.000
    Zr24    Zr   0.87881   0.91904   0.96694   1.000
    Zr25    Zr   0.59028   0.89880   0.98534   1.000
    Zr26    Zr   0.45231   0.60498   0.29611   1.000
    Zr27    Zr   0.40729   0.45419   0.32247   1.000
    Zr28    Zr   0.62248   0.58132   0.46683   1.000
    Zr29    Zr   0.91114   0.60145   0.48524   1.000
    Zr30    Zr   0.04614   0.89536   0.79616   1.000
    Zr31    Zr   0.09526   0.04600   0.82206   1.000
    Zr32    Zr   0.12118   0.08095   0.03305   1.000
    Zr33    Zr   0.40971   0.10120   0.00000   1.000
    Zr34    Zr   0.54769   0.39502   0.70387   1.000
    Zr35    Zr   0.59271   0.54582   0.67751   1.000
    Zr36    Zr   0.37752   0.41868   0.53315   1.000
    Zr37    Zr   0.08886   0.39856   0.51474   1.000
    Zr38    Zr   0.95382   0.10465   0.20382   1.000
    Zr39    Zr   0.90471   0.95399   0.17792   1.000
    O40     O    0.33492   0.11544   0.01663   1.000
    O41     O    0.19066   0.10532   0.03315   1.000
    O42     O    0.82951   0.01072   0.11949   1.000
    O43     O    0.85407   0.08605   0.13244   1.000
    O44     O    0.17505   0.62591   0.06859   1.000
    O45     O    0.13516   0.56337   0.13462   1.000
    O46     O    0.93646   0.98720   0.19919   1.000
    O47     O    0.96102   0.06252   0.21214   1.000
    O48     O    0.46056   0.56289   0.28790   1.000
    O49     O    0.43805   0.48750   0.30108   1.000
    O50     O    0.35366   0.58615   0.36759   1.000
    O51     O    0.63451   0.06352   0.36512   1.000
    O52     O    0.33115   0.51076   0.38077   1.000
    O53     O    0.67408   0.12604   0.43123   1.000
    O54     O    0.69203   0.60564   0.46669   1.000
    O55     O    0.83636   0.61570   0.47590   1.000
    O56     O    0.16364   0.38430   0.52409   1.000
    O57     O    0.30797   0.39436   0.53329   1.000
    O58     O    0.66885   0.48924   0.61921   1.000
    O59     O    0.64634   0.41385   0.63240   1.000
    O60     O    0.32591   0.87396   0.56875   1.000
    O61     O    0.36548   0.93648   0.63487   1.000
    O62     O    0.56195   0.51250   0.69890   1.000
    O63     O    0.53945   0.43711   0.71208   1.000
    O64     O    0.03896   0.93748   0.78784   1.000
    O65     O    0.06352   0.01280   0.80079   1.000
    O66     O    0.14591   0.91395   0.86754   1.000
    O67     O    0.86484   0.43663   0.86536   1.000
    O68     O    0.17047   0.98928   0.88049   1.000
    O69     O    0.82496   0.37410   0.93140   1.000
    O70     O    0.80932   0.89468   0.96683   1.000
    O71     O    0.66506   0.88456   0.97603   1.000
    O72     O    0.81656   0.99325   0.01400   1.000
    O73     O    0.06224   0.92580   0.95293   1.000
    O74     O    0.67229   0.98313   0.02320   1.000
    O75     O    0.41797   0.91567   0.96213   1.000
    O76     O    0.68373   0.50700   0.51387   1.000
    O77     O    0.43874   0.57432   0.45295   1.000
    O78     O    0.82806   0.51706   0.52308   1.000
    O79     O    0.08307   0.58439   0.46215   1.000
    O80     O    0.93774   0.07420   0.04706   1.000
    O81     O    0.18343   0.00675   0.98599   1.000
    O82     O    0.58201   0.08432   0.03053   1.000
    O83     O    0.32769   0.01687   0.96946   1.000
    O84     O    0.56125   0.42567   0.54703   1.000
    O85     O    0.31627   0.49300   0.48611   1.000
    O86     O    0.91692   0.41561   0.53783   1.000
    O87     O    0.17193   0.48294   0.47690   1.000
    N88     N    0.28836   0.42406   0.97081   1.000
    O89     O    0.23922   0.45636   0.02278   1.000
    O90     O    0.25794   0.48729   0.99299   1.000
    O91     O    0.38552   0.45722   0.86559   1.000
    O92     O    0.27056   0.30204   0.00660   1.000
    N93     N    0.78897   0.92427   0.52884   1.000
    O94     O    0.73945   0.95655   0.47690   1.000
    O95     O    0.75813   0.98752   0.50670   1.000
    O96     O    0.77154   0.80228   0.49310   1.000
    O97     O    0.88615   0.95704   0.63412   1.000
    N98     N    0.44727   0.93139   0.76548   1.000
    O99     O    0.43735   0.93174   0.74752   1.000
    N100    N    0.21102   0.07561   0.47115   1.000
    O101    O    0.11383   0.04237   0.36586   1.000
    O102    O    0.24185   0.01243   0.49328   1.000
    O103    O    0.26053   0.04339   0.52308   1.000
    O104    O    0.22845   0.19766   0.50689   1.000
    N105    N    0.71164   0.57594   0.02913   1.000
    O106    O    0.74205   0.51271   0.00697   1.000
    O107    O    0.76077   0.54364   0.97718   1.000
    O108    O    0.61448   0.54278   0.13438   1.000
    O109    O    0.72943   0.69796   0.99336   1.000
    N110    N    0.31818   0.73050   0.54135   1.000
    O111    O    0.32075   0.74982   0.54636   1.000
    N112    N    0.81638   0.23061   0.95865   1.000
    O113    O    0.81906   0.24993   0.95366   1.000
    N114    N    0.18360   0.76939   0.04133   1.000
    O115    O    0.18093   0.75008   0.04632   1.000
    N116    N    0.68181   0.26950   0.45864   1.000
    O117    O    0.67924   0.25018   0.45362   1.000
    N118    N    0.94670   0.43175   0.73482   1.000
    O119    O    0.93674   0.43205   0.75277   1.000
    N120    N    0.05329   0.56825   0.26516   1.000
    O121    O    0.06326   0.56795   0.24722   1.000
    N122    N    0.55271   0.06861   0.23451   1.000
    O123    O    0.56263   0.06826   0.25247   1.000
loop_
    _geom_bond_atom_site_label_1
    _geom_bond_atom_site_label_2
    _geom_bond_distance
    _geom_bond_site_symmetry_2
    _ccdc_geom_bond_type
    Zr33   O40       0.67288      .   S
    Zr16   O40       0.67288      .   S
    Zr32   O41       0.63240      .   S
    Zr16   O41       0.63240      .   S
    Zr0    O42       1.38378      .   S
    Zr39   O42       1.38378  1_565   S
    Zr0    O43       1.38604      .   S
    Zr38   O43       1.38604      .   S
    Zr19   O44       0.97892      .   S
    Zr6    O44       0.97892      .   S
    Zr6    O45       0.98606      .   S
    Zr18   O45       0.98606      .   S
    Zr39   O46       0.63342      .   S
    Zr21   O46       0.63342  1_545   S
    Zr38   O47       0.63607      .   S
    Zr21   O47       0.63607      .   S
    Zr9    O48       0.63611      .   S
    Zr26   O48       0.63611      .   S
    Zr9    O49       0.63334      .   S
    Zr27   O49       0.63334      .   S
    Zr26   O50       1.38449      .   S
    Zr3    O50       1.38449      .   S
    Zr14   O51       0.98604      .   S
    Zr5    O51       0.98604      .   S
    Zr27   O52       1.38443      .   S
    Zr3    O52       1.38443      .   S
    Zr5    O53       0.97886      .   S
    Zr15   O53       0.97886      .   S
    Zr12   O54       0.63251      .   S
    Zr28   O54       0.63251      .   S
    Zr12   O55       0.63650      .   S
    Zr29   O55       0.63650      .   S
    Zr37   O56       0.63650      .   S
    Zr20   O56       0.63650      .   S
    Zr36   O57       0.63251      .   S
    Zr20   O57       0.63251      .   S
    Zr1    O58       1.38442      .   S
    Zr35   O58       1.38442      .   S
    Zr1    O59       1.38447      .   S
    Zr34   O59       1.38447      .   S
    Zr23   O60       0.97886      .   S
    Zr7    O60       0.97886      .   S
    Zr7    O61       0.98604      .   S
    Zr22   O61       0.98604      .   S
    Zr35   O62       0.63335      .   S
    Zr17   O62       0.63335      .   S
    Zr34   O63       0.63612      .   S
    Zr17   O63       0.63612      .   S
    Zr13   O64       0.63607      .   S
    Zr30   O64       0.63607      .   S
    Zr13   O65       0.63342  1_565   S
    Zr31   O65       0.63342      .   S
    Zr30   O66       1.38606      .   S
    Zr2    O66       1.38606      .   S
    Zr10   O67       0.98607      .   S
    Zr4    O67       0.98607      .   S
    Zr31   O68       1.38378  1_545   S
    Zr2    O68       1.38378      .   S
    Zr4    O69       0.97892      .   S
    Zr11   O69       0.97892      .   S
    Zr8    O70       0.63240      .   S
    Zr24   O70       0.63240      .   S
    Zr8    O71       0.63652      .   S
    Zr25   O71       0.63652      .   S
    Zr24   O72       1.41600  1_556   S
    Zr0    O72       1.41600  1_545   S
    Zr24   O73       1.42902  1_655   S
    Zr2    O73       1.42902      .   S
    Zr25   O74       1.49319  1_556   S
    Zr0    O74       1.49319  1_545   S
    Zr25   O75       1.40597      .   S
    Zr2    O75       1.40597      .   S
    Zr28   O76       1.41442      .   S
    Zr1    O76       1.41442      .   S
    Zr28   O77       1.43075      .   S
    Zr3    O77       1.43075      .   S
    Zr29   O78       1.49779      .   S
    Zr1    O78       1.49779      .   S
    Zr29   O79       1.40391  1_655   S
    Zr3    O79       1.40391      .   S
    Zr32   O80       1.42903  1_455   S
    Zr0    O80       1.42903      .   S
    Zr32   O81       1.41601  1_554   S
    Zr2    O81       1.41601  1_565   S
    Zr33   O82       1.44043      .   S
    Zr0    O82       1.44043      .   S
    Zr33   O83       1.45070  1_554   S
    Zr2    O83       1.45070  1_565   S
    Zr36   O84       1.43070      .   S
    Zr1    O84       1.43070      .   S
    Zr36   O85       1.41443      .   S
    Zr3    O85       1.41443      .   S
    Zr37   O86       1.40395  1_455   S
    Zr1    O86       1.40395      .   S
    Zr37   O87       1.49774      .   S
    Zr3    O87       1.49774      .   S
    N88    O89       1.02749  1_556   S
    Zr6    O89       1.81118      .   S
    N88    O90       1.02622      .   S
    Zr6    O90       1.81073  1_554   S
    N88    O91       1.88180      .   S
    Zr17   O91       2.57267      .   S
    N88    O92       1.87750  1_556   S
    Zr16   O92       2.56156      .   S
    N93    O94       1.02780      .   S
    Zr5    O94       1.81206  1_545   S
    N93    O95       1.02713      .   S
    Zr5    O95       1.81118  1_545   S
    N93    O96       1.87642      .   S
    Zr12   O96       2.56041      .   S
    N93    O97       1.87984      .   S
    Zr13   O97       2.57283  1_455   S
    N98    O99       0.29413      .   S
    Zr22   O99       0.88239      .   S
    N100   O101      1.88155      .   S
    Zr21   O101      2.57191  1_655   S
    N100   O102      1.02633      .   S
    Zr7    O102      1.81066  1_565   S
    N100   O103      1.02739      .   S
    Zr7    O103      1.81132  1_565   S
    N100   O104      1.87726      .   S
    Zr20   O104      2.56129      .   S
    N105   O106      1.02611      .   S
    Zr4    O106      1.81050  1_556   S
    N105   O107      1.02724  1_554   S
    Zr4    O107      1.81103      .   S
    N105   O108      1.88207      .   S
    Zr9    O108      2.57295      .   S
    N105   O109      1.87745  1_554   S
    Zr8    O109      2.56153      .   S
    N110   O111      0.29411      .   S
    Zr23   O111      0.88234      .   S
    N112   O113      0.29412      .   S
    Zr11   O113      0.88235      .   S
    N114   O115      0.29412      .   S
    Zr19   O115      0.88236      .   S
    N116   O117      0.29411      .   S
    Zr15   O117      0.88233      .   S
    N118   O119      0.29413      .   S
    Zr10   O119      0.88239      .   S
    N120   O121      0.29413      .   S
    Zr18   O121      0.88239      .   S
    N122   O123      0.29413      .   S
    Zr14   O123      0.88239      .   S
