# CIF file generated by openbabel 2.4.90, see http://openbabel.sf.net
data_I
_chemical_name_common ''
_cell_length_a 13.167
_cell_length_b 13.258
_cell_length_c 22.407
_cell_angle_alpha 89.986
_cell_angle_beta 89.981
_cell_angle_gamma 102.493
_space_group_name_H-M_alt 'P 1'
_space_group_name_Hall 'P 1'
loop_
    _symmetry_equiv_pos_as_xyz
    x,y,z
loop_
    _atom_site_label
    _atom_site_type_symbol
    _atom_site_fract_x
    _atom_site_fract_y
    _atom_site_fract_z
    _atom_site_occupancy
    Zr0     Zr   0.22689   0.11916   0.82830   1.000
    Zr1     Zr   0.25316   0.14554   0.95348   1.000
    Zr2     Zr   0.77315   0.88080   0.32836   1.000
    Zr3     Zr   0.74681   0.85435   0.45348   1.000
    O4      O    0.24002   0.13235   0.89089   1.000
    O5      O    0.75998   0.86758   0.39092   1.000
    N6      N    0.25850   0.86212   0.39273   1.000
    O7      O    0.47631   0.86892   0.36254   1.000
    O8      O    0.04301   0.86568   0.42225   1.000
    O9      O    0.05386   0.87231   0.36576   1.000
    O10     O    0.46369   0.85234   0.41843   1.000
    N11     N    0.23093   0.12263   0.39144   1.000
    O12     O    0.22690   0.11927   0.58699   1.000
    O13     O    0.24182   0.13321   0.19554   1.000
    N14     N    0.24760   0.63320   0.88839   1.000
    O15     O    0.23244   0.83674   0.86253   1.000
    O16     O    0.24405   0.41635   0.85962   1.000
    O17     O    0.24920   0.84991   0.91832   1.000
    O18     O    0.25059   0.42738   0.91615   1.000
    N19     N    0.76896   0.87725   0.89145   1.000
    O20     O    0.77307   0.88062   0.08699   1.000
    O21     O    0.75808   0.86668   0.69555   1.000
    N22     N    0.75240   0.36673   0.38835   1.000
    O23     O    0.76755   0.16320   0.36249   1.000
    O24     O    0.75079   0.15000   0.41829   1.000
    O25     O    0.75596   0.58360   0.35964   1.000
    O26     O    0.74940   0.57254   0.41613   1.000
    N27     N    0.74149   0.13779   0.89249   1.000
    O28     O    0.53629   0.14757   0.91829   1.000
    O29     O    0.95697   0.13422   0.92212   1.000
    O30     O    0.52371   0.13101   0.86241   1.000
    O31     O    0.94615   0.12762   0.86562   1.000
loop_
    _geom_bond_atom_site_label_1
    _geom_bond_atom_site_label_2
    _geom_bond_distance
    _geom_bond_site_symmetry_2
    _ccdc_geom_bond_type
    Zr0    O4        1.41936      .   S
    Zr1    O4        1.41936      .   S
    Zr2    O5        1.41858      .   S
    Zr3    O5        1.41858      .   S
    N6     O7        2.92861      .   S
    Zr2    O7        3.95212      .   S
    N6     O8        2.92366      .   S
    Zr3    O8        3.93284  1_655   S
    N6     O9        2.79329      .   S
    Zr2    O9        3.81557  1_655   S
    N6     O10       2.79287      .   S
    Zr3    O10       3.80436      .   S
    N11    O12       4.38209      .   S
    Zr0    O12       5.40692      .   S
    N11    O13       4.39303      .   S
    Zr1    O13       5.42740  1_556   S
    N14    O15       2.80894      .   S
    Zr0    O15       3.83800  1_545   S
    N14    O16       2.93712      .   S
    Zr0    O16       3.96034      .   S
    N14    O17       2.94614      .   S
    Zr1    O17       3.98732  1_545   S
    N14    O18       2.80719      .   S
    Zr1    O18       3.83620      .   S
    N19    O20       4.38193  1_556   S
    Zr2    O20       5.40838      .   S
    N19    O21       4.39331      .   S
    Zr3    O21       5.42757      .   S
    N22    O23       2.80900      .   S
    Zr2    O23       3.83781  1_565   S
    N22    O24       2.94612      .   S
    Zr3    O24       3.98731  1_565   S
    N22    O25       2.93671      .   S
    Zr2    O25       3.95988      .   S
    N22    O26       2.80740      .   S
    Zr3    O26       3.83643      .   S
    N27    O28       2.79306      .   S
    Zr1    O28       3.80462      .   S
    N27    O29       2.92443      .   S
    Zr1    O29       3.93377  1_455   S
    N27    O30       2.92829      .   S
    Zr0    O30       3.95216      .   S
    N27    O31       2.79262      .   S
    Zr0    O31       3.81487  1_455   S
