# CIF file generated by openbabel 2.4.90, see http://openbabel.sf.net
data_I
_chemical_name_common 'VESTA_phase_1'
_cell_length_a 18.087
_cell_length_b 18.087
_cell_length_c 17.825
_cell_angle_alpha 90
_cell_angle_beta 89.999
_cell_angle_gamma 119.981
_space_group_name_H-M_alt 'P 1'
_space_group_name_Hall 'P 1'
loop_
    _symmetry_equiv_pos_as_xyz
    x,y,z
loop_
    _atom_site_label
    _atom_site_type_symbol
    _atom_site_fract_x
    _atom_site_fract_y
    _atom_site_fract_z
    _atom_site_occupancy
    La0     La   0.33330   0.16672   0.24999   1.000
    La1     La   0.33330   0.66673   0.24999   1.000
    La2     La   0.83331   0.16672   0.24999   1.000
    La3     La   0.83331   0.66673   0.24999   1.000
    La4     La   0.16671   0.33329   0.74998   1.000
    La5     La   0.16672   0.83330   0.74998   1.000
    La6     La   0.66672   0.33330   0.74998   1.000
    La7     La   0.66672   0.83330   0.74998   1.000
    Y8      Y    0.00003   0.00002   0.99999   1.000
    Y9      Y    0.00002   0.50002   0.99998   1.000
    Y10     Y    0.50003   0.00002   0.99999   1.000
    Y11     Y    0.50002   0.50002   0.99998   1.000
    Y12     Y    0.00002   0.00002   0.49999   1.000
    Y13     Y    0.00002   0.50003   0.49999   1.000
    Y14     Y    0.50003   0.00002   0.49999   1.000
    Y15     Y    0.50003   0.50003   0.49999   1.000
    H16     H    0.20255   0.21174   0.09203   1.000
    H17     H    0.20257   0.71176   0.09203   1.000
    H18     H    0.70258   0.21175   0.09203   1.000
    H19     H    0.70261   0.71176   0.09201   1.000
    H20     H    0.26070   0.17771   0.03450   1.000
    H21     H    0.26070   0.67771   0.03449   1.000
    H22     H    0.76071   0.17770   0.03449   1.000
    H23     H    0.76071   0.67768   0.03447   1.000
    H24     H    0.50892   0.29712   0.09197   1.000
    H25     H    0.50892   0.79713   0.09197   1.000
    H26     H    0.00000   0.29713   0.09197   1.000
    H27     H    0.00000   0.79714   0.09190   1.000
    H28     H    0.41678   0.23927   0.03435   1.000
    H29     H    0.41678   0.73928   0.03430   1.000
    H30     H    0.91679   0.23927   0.03430   1.000
    H31     H    0.91679   0.73927   0.03436   1.000
    H32     H    0.28817   0.99080   0.09199   1.000
    H33     H    0.28816   0.49081   0.09190   1.000
    H34     H    0.78817   0.99080   0.09190   1.000
    H35     H    0.78817   0.49080   0.09199   1.000
    H36     H    0.32221   0.08297   0.03447   1.000
    H37     H    0.32221   0.58298   0.03440   1.000
    H38     H    0.82222   0.08298   0.03446   1.000
    H39     H    0.82221   0.58298   0.03447   1.000
    H40     H    0.20257   0.21174   0.40795   1.000
    H41     H    0.20257   0.71175   0.40795   1.000
    H42     H    0.70258   0.21174   0.40795   1.000
    H43     H    0.70259   0.71175   0.40796   1.000
    H44     H    0.26070   0.17769   0.46550   1.000
    H45     H    0.26070   0.67769   0.46549   1.000
    H46     H    0.76071   0.17769   0.46500   1.000
    H47     H    0.76070   0.67769   0.46550   1.000
    H48     H    0.50890   0.29711   0.40801   1.000
    H49     H    0.50891   0.79712   0.40801   1.000
    H50     H    0.00000   0.29711   0.40801   1.000
    H51     H    0.00000   0.79713   0.40801   1.000
    H52     H    0.41677   0.23926   0.46563   1.000
    H53     H    0.41677   0.73927   0.46563   1.000
    H54     H    0.91678   0.23926   0.46563   1.000
    H55     H    0.91678   0.73927   0.46563   1.000
    H56     H    0.28816   0.99079   0.40800   1.000
    H57     H    0.28816   0.49081   0.40800   1.000
    H58     H    0.78817   0.99079   0.40800   1.000
    H59     H    0.78817   0.49080   0.40800   1.000
    H60     H    0.32220   0.08297   0.46551   1.000
    H61     H    0.32221   0.58298   0.46552   1.000
    H62     H    0.82221   0.08297   0.46552   1.000
    H63     H    0.82221   0.58297   0.46550   1.000
    H64     H    0.99078   0.28818   0.90798   1.000
    H65     H    0.99079   0.78818   0.90798   1.000
    H66     H    0.49079   0.28818   0.90798   1.000
    H67     H    0.49079   0.78818   0.90798   1.000
    H68     H    0.08295   0.32218   0.96550   1.000
    H69     H    0.08296   0.82219   0.96550   1.000
    H70     H    0.58296   0.32218   0.96550   1.000
    H71     H    0.58296   0.82219   0.96550   1.000
    H72     H    0.21173   0.20258   0.90795   1.000
    H73     H    0.21173   0.70257   0.90794   1.000
    H74     H    0.71174   0.20256   0.90794   1.000
    H75     H    0.71173   0.70254   0.90793   1.000
    H76     H    0.17767   0.26070   0.96550   1.000
    H77     H    0.17769   0.76071   0.96549   1.000
    H78     H    0.67770   0.26070   0.96549   1.000
    H79     H    0.67772   0.76071   0.96547   1.000
    H80     H    0.29713   0.50891   0.90000   1.000
    H81     H    0.29713   0.00000   0.90800   1.000
    H82     H    0.79714   0.50891   0.90800   1.000
    H83     H    0.79714   0.00000   0.90800   1.000
    H84     H    0.23925   0.41678   0.96561   1.000
    H85     H    0.23925   0.91678   0.96562   1.000
    H86     H    0.73926   0.41678   0.96562   1.000
    H87     H    0.73926   0.91679   0.96561   1.000
    H88     H    0.99078   0.28817   0.59190   1.000
    H89     H    0.99079   0.78818   0.59198   1.000
    H90     H    0.49078   0.28818   0.59199   1.000
    H91     H    0.49079   0.78818   0.59198   1.000
    H92     H    0.08295   0.32217   0.53447   1.000
    H93     H    0.08296   0.82219   0.53446   1.000
    H94     H    0.58296   0.32217   0.53447   1.000
    H95     H    0.58296   0.82219   0.53440   1.000
    H96     H    0.21173   0.20256   0.59202   1.000
    H97     H    0.21173   0.70257   0.59202   1.000
    H98     H    0.71174   0.20256   0.59202   1.000
    H99     H    0.71174   0.70256   0.59202   1.000
    H100    H    0.17770   0.26070   0.53448   1.000
    H101    H    0.17770   0.76071   0.53448   1.000
    H102    H    0.67771   0.26071   0.53448   1.000
    H103    H    0.67771   0.76071   0.53448   1.000
    H104    H    0.29714   0.50891   0.59197   1.000
    H105    H    0.29713   0.00000   0.59197   1.000
    H106    H    0.79714   0.50891   0.59197   1.000
    H107    H    0.79714   0.00000   0.59197   1.000
    H108    H    0.23925   0.41678   0.53435   1.000
    H109    H    0.23926   0.91678   0.53435   1.000
    H110    H    0.73926   0.41678   0.53435   1.000
    H111    H    0.73926   0.91679   0.53435   1.000
    C112    C    0.16931   0.07978   0.10772   1.000
    C113    C    0.16932   0.57979   0.10770   1.000
    C114    C    0.66932   0.07978   0.10771   1.000
    C115    C    0.66932   0.57979   0.10771   1.000
    C116    C    0.19724   0.15821   0.05830   1.000
    C117    C    0.19725   0.65822   0.05829   1.000
    C118    C    0.69726   0.15821   0.05829   1.000
    C119    C    0.69726   0.65822   0.05828   1.000
    C120    C    0.41042   0.33070   0.10769   1.000
    C121    C    0.41042   0.83071   0.10769   1.000
    C122    C    0.91042   0.33070   0.10769   1.000
    C123    C    0.91043   0.83071   0.10769   1.000
    C124    C    0.46081   0.30265   0.05824   1.000
    C125    C    0.46081   0.80266   0.05824   1.000
    C126    C    0.96082   0.30265   0.05824   1.000
    C127    C    0.96082   0.80266   0.05824   1.000
    C128    C    0.42012   0.08947   0.10772   1.000
    C129    C    0.42011   0.58948   0.10772   1.000
    C130    C    0.92012   0.08947   0.10772   1.000
    C131    C    0.92012   0.58948   0.10772   1.000
    C132    C    0.34171   0.03900   0.05827   1.000
    C133    C    0.34171   0.53901   0.05827   1.000
    C134    C    0.84172   0.03901   0.05827   1.000
    C135    C    0.84172   0.53901   0.05827   1.000
    C136    C    0.16931   0.07977   0.39227   1.000
    C137    C    0.16931   0.57978   0.39227   1.000
    C138    C    0.66932   0.07977   0.39227   1.000
    C139    C    0.66932   0.57978   0.39227   1.000
    C140    C    0.19725   0.15820   0.44169   1.000
    C141    C    0.19725   0.65821   0.44169   1.000
    C142    C    0.69725   0.15821   0.44169   1.000
    C143    C    0.69725   0.65821   0.44169   1.000
    C144    C    0.41041   0.33069   0.39229   1.000
    C145    C    0.41041   0.83070   0.39229   1.000
    C146    C    0.91042   0.33069   0.39229   1.000
    C147    C    0.91042   0.83070   0.39229   1.000
    C148    C    0.46080   0.30264   0.44174   1.000
    C149    C    0.46081   0.80265   0.44174   1.000
    C150    C    0.96081   0.30264   0.44174   1.000
    C151    C    0.96081   0.80265   0.44174   1.000
    C152    C    0.42011   0.08947   0.39226   1.000
    C153    C    0.42011   0.58948   0.39226   1.000
    C154    C    0.92012   0.08947   0.39226   1.000
    C155    C    0.92012   0.58947   0.39226   1.000
    C156    C    0.34171   0.03900   0.44171   1.000
    C157    C    0.34171   0.53901   0.44170   1.000
    C158    C    0.84171   0.03900   0.44171   1.000
    C159    C    0.84171   0.53901   0.44171   1.000
    C160    C    0.08947   0.42011   0.89225   1.000
    C161    C    0.08947   0.92012   0.89220   1.000
    C162    C    0.58948   0.42012   0.89220   1.000
    C163    C    0.58948   0.92012   0.89220   1.000
    C164    C    0.03900   0.34171   0.94170   1.000
    C165    C    0.03900   0.84171   0.94170   1.000
    C166    C    0.53901   0.34171   0.94170   1.000
    C167    C    0.53901   0.84171   0.94170   1.000
    C168    C    0.07976   0.16931   0.89226   1.000
    C169    C    0.07977   0.66932   0.89226   1.000
    C170    C    0.57977   0.16931   0.89226   1.000
    C171    C    0.57977   0.66932   0.89226   1.000
    C172    C    0.15819   0.19725   0.94169   1.000
    C173    C    0.15820   0.69725   0.94168   1.000
    C174    C    0.65820   0.19725   0.94168   1.000
    C175    C    0.65821   0.69725   0.94160   1.000
    C176    C    0.33069   0.41040   0.89229   1.000
    C177    C    0.33069   0.91041   0.89229   1.000
    C178    C    0.83070   0.41040   0.89229   1.000
    C179    C    0.83070   0.91041   0.89229   1.000
    C180    C    0.30263   0.46080   0.94173   1.000
    C181    C    0.30264   0.96081   0.94174   1.000
    C182    C    0.80264   0.46080   0.94174   1.000
    C183    C    0.80264   0.96081   0.94170   1.000
    C184    C    0.08947   0.42011   0.60771   1.000
    C185    C    0.08947   0.92012   0.60771   1.000
    C186    C    0.58948   0.42011   0.60771   1.000
    C187    C    0.58948   0.92012   0.60771   1.000
    C188    C    0.03900   0.34170   0.55826   1.000
    C189    C    0.03900   0.84171   0.55826   1.000
    C190    C    0.53900   0.34170   0.55826   1.000
    C191    C    0.53901   0.84171   0.55826   1.000
    C192    C    0.07977   0.16931   0.60770   1.000
    C193    C    0.07977   0.66932   0.60770   1.000
    C194    C    0.57978   0.16931   0.60770   1.000
    C195    C    0.57978   0.66932   0.60770   1.000
    C196    C    0.15820   0.19725   0.55828   1.000
    C197    C    0.15820   0.69725   0.55828   1.000
    C198    C    0.65821   0.19725   0.55828   1.000
    C199    C    0.65821   0.69725   0.55828   1.000
    C200    C    0.33069   0.41040   0.60768   1.000
    C201    C    0.33069   0.91041   0.60760   1.000
    C202    C    0.83070   0.41040   0.60768   1.000
    C203    C    0.83070   0.91041   0.60760   1.000
    C204    C    0.30264   0.46080   0.55823   1.000
    C205    C    0.30264   0.96081   0.55823   1.000
    C206    C    0.80265   0.46080   0.55823   1.000
    C207    C    0.80265   0.96081   0.55823   1.000
    O208    O    0.10218   0.01199   0.09030   1.000
    O209    O    0.10218   0.51200   0.09036   1.000
    O210    O    0.60219   0.01199   0.09036   1.000
    O211    O    0.60219   0.51200   0.09036   1.000
    O212    O    0.21818   0.08840   0.16240   1.000
    O213    O    0.21818   0.58841   0.16242   1.000
    O214    O    0.71819   0.08840   0.16242   1.000
    O215    O    0.71819   0.58841   0.16242   1.000
    O216    O    0.40992   0.39795   0.09040   1.000
    O217    O    0.40992   0.89796   0.09040   1.000
    O218    O    0.90993   0.39795   0.09040   1.000
    O219    O    0.90993   0.89796   0.09040   1.000
    O220    O    0.37010   0.28181   0.16230   1.000
    O221    O    0.37010   0.78182   0.16237   1.000
    O222    O    0.87011   0.28182   0.16237   1.000
    O223    O    0.87011   0.78182   0.16237   1.000
    O224    O    0.48793   0.09014   0.09038   1.000
    O225    O    0.48793   0.59014   0.09038   1.000
    O226    O    0.98794   0.09014   0.09038   1.000
    O227    O    0.98794   0.59015   0.09038   1.000
    O228    O    0.41146   0.12971   0.16242   1.000
    O229    O    0.41145   0.62972   0.16242   1.000
    O230    O    0.91147   0.12971   0.16242   1.000
    O231    O    0.91146   0.62972   0.16242   1.000
    O232    O    0.10218   0.01198   0.40960   1.000
    O233    O    0.10218   0.51199   0.40960   1.000
    O234    O    0.60219   0.01198   0.40960   1.000
    O235    O    0.60218   0.51199   0.40960   1.000
    O236    O    0.21818   0.08839   0.33756   1.000
    O237    O    0.21818   0.58840   0.33756   1.000
    O238    O    0.71819   0.08839   0.33756   1.000
    O239    O    0.71819   0.58840   0.33756   1.000
    O240    O    0.40992   0.39795   0.40958   1.000
    O241    O    0.40992   0.89796   0.40958   1.000
    O242    O    0.90992   0.39794   0.40958   1.000
    O243    O    0.90992   0.89795   0.40958   1.000
    O244    O    0.37009   0.28181   0.33762   1.000
    O245    O    0.37009   0.78182   0.33762   1.000
    O246    O    0.87010   0.28181   0.33762   1.000
    O247    O    0.87010   0.78182   0.33762   1.000
    O248    O    0.48793   0.09014   0.40960   1.000
    O249    O    0.48793   0.59014   0.40960   1.000
    O250    O    0.98794   0.09013   0.40960   1.000
    O251    O    0.98794   0.59014   0.40960   1.000
    O252    O    0.41146   0.12971   0.33756   1.000
    O253    O    0.41145   0.62972   0.33756   1.000
    O254    O    0.91146   0.12971   0.33756   1.000
    O255    O    0.91146   0.62971   0.33756   1.000
    O256    O    0.09012   0.48793   0.90959   1.000
    O257    O    0.09012   0.98793   0.90959   1.000
    O258    O    0.59013   0.48793   0.90959   1.000
    O259    O    0.59013   0.98793   0.90959   1.000
    O260    O    0.12969   0.41145   0.83754   1.000
    O261    O    0.12969   0.91145   0.83754   1.000
    O262    O    0.62970   0.41145   0.83754   1.000
    O263    O    0.62970   0.91146   0.83754   1.000
    O264    O    0.01198   0.10216   0.90961   1.000
    O265    O    0.01198   0.60217   0.90961   1.000
    O266    O    0.51199   0.10217   0.90961   1.000
    O267    O    0.51199   0.60217   0.90961   1.000
    O268    O    0.08839   0.21817   0.83755   1.000
    O269    O    0.08839   0.71818   0.83754   1.000
    O270    O    0.58840   0.21817   0.83750   1.000
    O271    O    0.58840   0.71817   0.83754   1.000
    O272    O    0.39795   0.40992   0.90956   1.000
    O273    O    0.39795   0.90993   0.90956   1.000
    O274    O    0.89796   0.40992   0.90956   1.000
    O275    O    0.89796   0.90992   0.90956   1.000
    O276    O    0.28181   0.37010   0.83760   1.000
    O277    O    0.28182   0.87011   0.83760   1.000
    O278    O    0.78182   0.37010   0.83760   1.000
    O279    O    0.78182   0.87011   0.83760   1.000
    O280    O    0.09012   0.48792   0.59038   1.000
    O281    O    0.09012   0.98793   0.59038   1.000
    O282    O    0.59013   0.48792   0.59038   1.000
    O283    O    0.59013   0.98793   0.59038   1.000
    O284    O    0.12969   0.41144   0.66242   1.000
    O285    O    0.12969   0.91145   0.66242   1.000
    O286    O    0.62970   0.41144   0.66242   1.000
    O287    O    0.62970   0.91145   0.66242   1.000
    O288    O    0.01198   0.10217   0.59035   1.000
    O289    O    0.01198   0.60217   0.59035   1.000
    O290    O    0.51199   0.10217   0.59035   1.000
    O291    O    0.51199   0.60218   0.59035   1.000
    O292    O    0.08839   0.21817   0.66242   1.000
    O293    O    0.08839   0.71817   0.66242   1.000
    O294    O    0.58840   0.21817   0.66242   1.000
    O295    O    0.58840   0.71817   0.66242   1.000
    O296    O    0.39795   0.40992   0.59040   1.000
    O297    O    0.39796   0.90993   0.59040   1.000
    O298    O    0.89796   0.40992   0.59040   1.000
    O299    O    0.89796   0.90993   0.59040   1.000
    O300    O    0.28181   0.37010   0.66236   1.000
    O301    O    0.28182   0.87011   0.66236   1.000
    O302    O    0.78182   0.37010   0.66236   1.000
    O303    O    0.78182   0.87011   0.66236   1.000
    O304    O    0.13591   0.13592   0.00000   1.000
    O305    O    0.13590   0.63592   0.99998   1.000
    O306    O    0.63592   0.13592   0.00000   1.000
    O307    O    0.63591   0.63592   0.99998   1.000
    O308    O    0.99999   0.36405   0.20000   1.000
    O309    O    0.99999   0.86405   0.20000   1.000
    O310    O    0.50000   0.36405   0.30000   1.000
    O311    O    0.49999   0.86405   0.00000   1.000
    O312    O    0.36404   0.99997   0.99998   1.000
    O313    O    0.36403   0.49997   0.99996   1.000
    O314    O    0.86405   0.99997   0.99998   1.000
    O315    O    0.86405   0.49998   0.99998   1.000
    O316    O    0.13591   0.13591   0.49998   1.000
    O317    O    0.13591   0.63592   0.49998   1.000
    O318    O    0.63592   0.13591   0.49998   1.000
    O319    O    0.63591   0.63592   0.49998   1.000
    O320    O    0.99998   0.36404   0.49996   1.000
    O321    O    0.99998   0.86405   0.49996   1.000
    O322    O    0.49999   0.36404   0.49996   1.000
    O323    O    0.49999   0.86405   0.49996   1.000
    O324    O    0.36404   0.99997   0.50000   1.000
    O325    O    0.36403   0.49997   0.50000   1.000
    O326    O    0.86404   0.99997   0.50000   1.000
    O327    O    0.86404   0.49997   0.50000   1.000
loop_
    _geom_bond_atom_site_label_1
    _geom_bond_atom_site_label_2
    _geom_bond_distance
    _geom_bond_site_symmetry_2
    _ccdc_geom_bond_type
    O311   C125      1.42350      .   S
    O311   C167      1.42344  1_554   S
    H29    C125      1.10364      .   S
    H30    C126      1.10366      .   S
    H28    C124      1.10330      .   S
    H31    C127      1.10325      .   S
    H37    C133      1.10373      .   S
    H38    C134      1.10329      .   S
    H23    C119      1.10322      .   S
    H36    C132      1.10325      .   S
    H39    C135      1.10326      .   S
    H22    C118      1.10322      .   S
    H21    C117      1.10322      .   S
    H20    C116      1.10326      .   S
    C124   H24       1.10245      .   S
    C124   C120      1.52556      .   S
    C125   H25       1.10245      .   S
    C125   C121      1.52557      .   S
    C127   H27       0.97094  1_655   S
    C127   C123      1.52559      .   S
    C126   H26       0.97181  1_655   S
    C126   C122      1.52556      .   S
    C132   H32       1.10249  1_545   S
    C132   C128      1.52562      .   S
    C132   O312      1.42338  1_544   S
    C133   H33       1.10163      .   S
    C133   C129      1.52561      .   S
    C133   O313      1.42367  1_554   S
    C134   H34       1.10162  1_545   S
    C134   C130      1.52562      .   S
    C134   O314      1.42343  1_544   S
    C135   H35       1.10251      .   S
    C135   C131      1.52562      .   S
    C135   O315      1.42335  1_554   S
    C119   H19       1.10244      .   S
    C119   C115      1.52559      .   S
    C119   O307      1.42369  1_554   S
    C117   H17       1.10249      .   S
    C117   C113      1.52545      .   S
    C117   O305      1.42368  1_554   S
    C118   H18       1.10249      .   S
    C118   C114      1.52555      .   S
    C118   O306      1.42333      .   S
    C116   H16       1.10238      .   S
    C116   C112      1.52559      .   S
    C116   O304      1.42338      .   S
    O208   C112      1.25945      .   S
    O208   Y8        2.37756  1_554   S
    O209   C113      1.25911      .   S
    O209   Y9        2.37849  1_554   S
    O210   C114      1.25915      .   S
    O210   Y10       2.37827  1_554   S
    O211   C115      1.25917      .   S
    O211   Y11       2.37848  1_554   S
    O224   C128      1.25919      .   S
    O224   Y10       2.37840  1_554   S
    O225   C129      1.25919      .   S
    O225   Y11       2.37855  1_554   S
    O226   C130      1.25920      .   S
    O226   Y8        2.37827  1_654   S
    O227   C131      1.25918      .   S
    O227   Y9        2.37843  1_654   S
    O216   C120      1.25920      .   S
    O216   Y11       2.37802  1_554   S
    O217   C121      1.25918      .   S
    O217   Y10       2.37789  1_564   S
    O218   C122      1.25920      .   S
    O218   Y9        2.37793  1_654   S
    O219   C123      1.25918      .   S
    O219   Y8        2.37782  1_664   S
    C120   O220      1.27149      .   S
    C121   O221      1.27244      .   S
    C122   O222      1.27244      .   S
    C123   O223      1.27244      .   S
    C113   O213      1.27246      .   S
    C115   O215      1.27233      .   S
    C114   O214      1.27233      .   S
    C112   O212      1.27192      .   S
    C131   O231      1.27232      .   S
    C130   O230      1.27232      .   S
    C129   O229      1.27232      .   S
    C128   O228      1.27232      .   S
    O220   La0       2.41557      .   S
    O221   La1       2.41476      .   S
    O222   La2       2.41478      .   S
    O223   La3       2.41476      .   S
    O212   La0       2.41498      .   S
    O231   La3       2.41424      .   S
    O214   La2       2.41473      .   S
    O230   La2       2.41423      .   S
    O229   La1       2.41421      .   S
    O228   La0       2.41423      .   S
    O213   La1       2.41474      .   S
    O215   La3       2.41470      .   S
    La1    O237      2.41474      .   S
    La1    O253      2.41426      .   S
    La1    O245      2.41484      .   S
    La0    O252      2.41428      .   S
    La0    O236      2.41473      .   S
    La0    O244      2.41483      .   S
    La3    O239      2.41473      .   S
    La3    O255      2.41428      .   S
    La3    O247      2.41484      .   S
    La2    O254      2.41426      .   S
    La2    O238      2.41472      .   S
    La2    O246      2.41484      .   S
    O254   C154      1.27232      .   S
    O252   C152      1.27231      .   S
    O236   C136      1.27232      .   S
    O237   C137      1.27232      .   S
    O238   C138      1.27233      .   S
    O239   C139      1.27233      .   S
    O253   C153      1.27232      .   S
    O255   C155      1.27232      .   S
    O244   C144      1.27233      .   S
    O245   C145      1.27233      .   S
    O246   C146      1.27232      .   S
    O247   C147      1.27233      .   S
    C152   O248      1.25921      .   S
    C152   C156      1.52561      .   S
    C153   O249      1.25921      .   S
    C153   C157      1.52548      .   S
    C154   O250      1.25921      .   S
    C154   C158      1.52559      .   S
    C155   O251      1.25921      .   S
    C155   C159      1.52561      .   S
    C139   O235      1.25907      .   S
    C139   C143      1.52553      .   S
    C138   O234      1.25906      .   S
    C138   C142      1.52556      .   S
    C136   O232      1.25907      .   S
    C136   C140      1.52556      .   S
    C137   O233      1.25907      .   S
    C137   C141      1.52555      .   S
    C147   O243      1.25919      .   S
    C147   C151      1.52558      .   S
    C146   O242      1.25918      .   S
    C146   C150      1.52556      .   S
    C145   O241      1.25919      .   S
    C145   C149      1.52557      .   S
    C144   O240      1.25919      .   S
    C144   C148      1.52556      .   S
    H40    C140      1.10249      .   S
    H42    C142      1.10248      .   S
    H41    C141      1.10250      .   S
    H43    C143      1.10240      .   S
    H59    C159      1.10241      .   S
    H56    C156      1.10242  1_565   S
    H57    C157      1.10232      .   S
    H58    C158      1.10242  1_565   S
    H51    C151      0.97186  1_455   S
    H50    C150      0.97198  1_455   S
    H49    C149      1.10244      .   S
    H48    C148      1.10244      .   S
    O243   Y12       2.37785  1_665   S
    O242   Y13       2.37796  1_655   S
    O241   Y14       2.37791  1_565   S
    O240   Y15       2.37803      .   S
    O251   Y13       2.37829  1_655   S
    O249   Y15       2.37840      .   S
    O248   Y14       2.37841      .   S
    O235   Y15       2.37848      .   S
    O234   Y14       2.37848      .   S
    O233   Y13       2.37847      .   S
    O232   Y12       2.37848      .   S
    O250   Y12       2.37829  1_655   S
    C143   H47       1.10326      .   S
    C143   O319      1.42337      .   S
    C142   H46       1.09989      .   S
    C142   O318      1.42333      .   S
    C141   H45       1.10321      .   S
    C141   O317      1.42333      .   S
    C140   H44       1.10329      .   S
    C140   O316      1.42335      .   S
    C157   H61       1.10336      .   S
    C157   O325      1.42357      .   S
    C159   H63       1.10317      .   S
    C159   O327      1.42340      .   S
    C158   H62       1.10332      .   S
    C158   O326      1.42340  1_545   S
    C156   H60       1.10324      .   S
    C156   O324      1.42339  1_545   S
    C148   H52       1.10328      .   S
    C148   O322      1.42339      .   S
    C149   H53       1.10330      .   S
    C149   O323      1.42337      .   S
    C150   H54       1.10329      .   S
    C150   O320      1.42334      .   S
    C151   H55       1.10331      .   S
    C151   O321      1.42332      .   S
    O320   C188      1.42342  1_655   S
    O321   C189      1.42346  1_655   S
    O322   C190      1.42341      .   S
    O323   C191      1.42344      .   S
    O319   C199      1.42340      .   S
    O316   C196      1.42343      .   S
    O317   C197      1.42344      .   S
    O318   C198      1.42345      .   S
    Y15    O291      2.37802      .   S
    Y15    O282      2.37832      .   S
    Y15    O296      2.37791      .   S
    Y14    O290      2.37802      .   S
    Y14    O283      2.37819  1_545   S
    Y14    O297      2.37783  1_545   S
    Y13    O289      2.37803      .   S
    Y13    O280      2.37830      .   S
    Y13    O298      2.37780  1_455   S
    Y12    O288      2.37803      .   S
    Y12    O281      2.37820  1_545   S
    Y12    O299      2.37771  1_445   S
    O325   C204      1.42338      .   S
    O327   C206      1.42342      .   S
    O326   C207      1.42338      .   S
    O324   C205      1.42340      .   S
    H111   C207      1.10326      .   S
    H110   C206      1.10327      .   S
    H109   C205      1.10326      .   S
    H108   C204      1.10328      .   S
    H95    C191      1.10370      .   S
    H93    C189      1.10327      .   S
    H92    C188      1.10321      .   S
    H94    C190      1.10322      .   S
    H103   C199      1.10325      .   S
    H102   C198      1.10323      .   S
    H101   C197      1.10323      .   S
    H100   C196      1.10323      .   S
    C207   H107      0.97198  1_565   S
    C207   C203      1.52477      .   S
    C206   H106      1.10247      .   S
    C206   C202      1.52559      .   S
    C205   H105      0.97199  1_565   S
    C205   C201      1.52477      .   S
    C204   H104      1.10247      .   S
    C204   C200      1.52561      .   S
    C191   H91       1.10245      .   S
    C191   C187      1.52562      .   S
    C190   H90       1.10254      .   S
    C190   C186      1.52565      .   S
    C188   H88       1.10167  1_455   S
    C188   C184      1.52565      .   S
    C189   H89       1.10246  1_455   S
    C189   C185      1.52562      .   S
    C199   H99       1.10245      .   S
    C199   C195      1.52556      .   S
    C198   H98       1.10247      .   S
    C198   C194      1.52554      .   S
    C197   H97       1.10246      .   S
    C197   C193      1.52555      .   S
    C196   H96       1.10246      .   S
    C196   C192      1.52554      .   S
    O291   C195      1.25920      .   S
    O288   C192      1.25920      .   S
    O289   C193      1.25920      .   S
    O290   C194      1.25920      .   S
    O280   C184      1.25920      .   S
    O281   C185      1.25921      .   S
    O282   C186      1.25919      .   S
    O283   C187      1.25920      .   S
    O296   C200      1.25920      .   S
    O299   C203      1.25885      .   S
    O297   C201      1.25885      .   S
    O298   C202      1.25919      .   S
    C201   O301      1.27341      .   S
    C203   O303      1.27341      .   S
    C202   O302      1.27231      .   S
    C200   O300      1.27232      .   S
    C195   O295      1.27232      .   S
    C194   O294      1.27232      .   S
    C193   O293      1.27232      .   S
    C192   O292      1.27232      .   S
    C184   O284      1.27232      .   S
    C185   O285      1.27232      .   S
    C186   O286      1.27232      .   S
    C187   O287      1.27232      .   S
    O302   La6       2.41479      .   S
    O300   La4       2.41479      .   S
    O301   La5       2.41478      .   S
    O303   La7       2.41479      .   S
    O293   La5       2.41471      .   S
    O295   La7       2.41471      .   S
    O294   La6       2.41469      .   S
    O284   La4       2.41418      .   S
    O285   La5       2.41420      .   S
    O286   La6       2.41418      .   S
    O287   La7       2.41419      .   S
    O292   La4       2.41470      .   S
    La6    O270      2.41420      .   S
    La6    O262      2.41424      .   S
    La6    O278      2.41481      .   S
    La7    O263      2.41420      .   S
    La7    O271      2.41468      .   S
    La7    O279      2.41480      .   S
    La4    O260      2.41423      .   S
    La4    O268      2.41476      .   S
    La4    O276      2.41482      .   S
    La5    O269      2.41466      .   S
    La5    O261      2.41421      .   S
    La5    O277      2.41481      .   S
    O270   C170      1.27288      .   S
    O269   C169      1.27232      .   S
    O260   C160      1.27230      .   S
    O261   C161      1.27162      .   S
    O262   C162      1.27162      .   S
    O263   C163      1.27162      .   S
    O271   C171      1.27234      .   S
    O268   C168      1.27220      .   S
    O276   C176      1.27246      .   S
    O277   C177      1.27245      .   S
    O278   C178      1.27245      .   S
    O279   C179      1.27245      .   S
    C163   O259      1.25945      .   S
    C163   C167      1.52614      .   S
    C162   O258      1.25946      .   S
    C162   C166      1.52616      .   S
    C161   O257      1.25945      .   S
    C161   C165      1.52614      .   S
    C160   O256      1.25925      .   S
    C160   C164      1.52563      .   S
    C171   O267      1.25919      .   S
    C171   C175      1.52480      .   S
    C170   O266      1.25920      .   S
    C170   C174      1.52556      .   S
    C169   O265      1.25919      .   S
    C169   C173      1.52556      .   S
    C168   O264      1.25921      .   S
    C168   C172      1.52560      .   S
    C179   O275      1.25915      .   S
    C179   C183      1.52518      .   S
    C176   O272      1.25915      .   S
    C176   C180      1.52549      .   S
    C177   O273      1.25914      .   S
    C177   C181      1.52559      .   S
    C178   O274      1.25915      .   S
    C178   C182      1.52556      .   S
    H80    C180      1.18619      .   S
    H75    C175      1.10173      .   S
    H73    C173      1.10245      .   S
    H74    C174      1.10245      .   S
    H72    C172      1.10247      .   S
    H67    C167      1.10245      .   S
    H64    C164      1.10246  1_655   S
    H65    C165      1.10246  1_655   S
    H66    C166      1.10245      .   S
    H81    C181      0.97197  1_545   S
    H83    C183      0.97147  1_545   S
    H82    C182      1.10250      .   S
    O275   Y8        2.37812  1_665   S
    O274   Y9        2.37795  1_655   S
    O273   Y10       2.37823  1_565   S
    O272   Y11       2.37806      .   S
    O257   Y8        2.37821  1_565   S
    O256   Y9        2.37827      .   S
    O259   Y10       2.37821  1_565   S
    O258   Y11       2.37826      .   S
    O265   Y9        2.37814      .   S
    O267   Y11       2.37815      .   S
    O266   Y10       2.37821      .   S
    O264   Y8        2.37820      .   S
    C175   H79       1.10377      .   S
    C175   O307      1.42436      .   S
    C173   H77       1.10329      .   S
    C173   O305      1.42345      .   S
    C174   H78       1.10328      .   S
    C174   O306      1.42363  1_556   S
    C172   H76       1.10324      .   S
    C172   O304      1.42358  1_556   S
    C166   H70       1.10329      .   S
    C165   H69       1.10326      .   S
    C167   H71       1.10329      .   S
    C183   H87       1.10347      .   S
    C183   O314      1.42414      .   S
    C164   H68       1.10327      .   S
    C180   H84       1.10327      .   S
    C180   O313      1.42340      .   S
    C181   H85       1.10327      .   S
    C181   O312      1.42364      .   S
    C182   H86       1.10325      .   S
    C182   O315      1.42368      .   S
    O304   Y8        2.45856  1_554   S
    O305   Y9        2.45856      .   S
    O306   Y10       2.45856  1_554   S
    O307   Y11       2.45856      .   S
    O311   Y10       2.45902  1_564   S
    O312   Y10       2.45924  1_565   S
    O313   Y11       2.45924      .   S
    O314   Y8        2.45896  1_665   S
    O315   Y9        2.45886  1_655   S
    O316   Y12       2.45853      .   S
    O317   Y13       2.45852      .   S
    O318   Y14       2.45854      .   S
    O319   Y15       2.45854      .   S
    O320   Y13       2.45925  1_655   S
    O321   Y12       2.45899  1_665   S
    O322   Y15       2.45925      .   S
    O323   Y14       2.45897  1_565   S
    O324   Y14       2.45923  1_565   S
    O325   Y15       2.45923      .   S
    O326   Y12       2.45896  1_665   S
    O327   Y13       2.45896  1_655   S
