# CIF file generated by openbabel 2.4.90, see http://openbabel.sf.net
data_I
_chemical_name_common 'VESTA_phase_1'
_cell_length_a 13.444
_cell_length_b 13.791
_cell_length_c 27.651
_cell_angle_alpha 90.014
_cell_angle_beta 89.914
_cell_angle_gamma 89.064
_space_group_name_H-M_alt 'P 1'
_space_group_name_Hall 'P 1'
loop_
    _symmetry_equiv_pos_as_xyz
    x,y,z
loop_
    _atom_site_label
    _atom_site_type_symbol
    _atom_site_fract_x
    _atom_site_fract_y
    _atom_site_fract_z
    _atom_site_occupancy
    Cd0     Cd   0.00000   0.16217   0.12569   1.000
    Cd1     Cd   0.89378   0.54090   0.18676   1.000
    Cd2     Cd   0.12247   0.78279   0.06739   1.000
    Cd3     Cd   0.48803   0.33173   0.87490   1.000
    Cd4     Cd   0.37893   0.95942   0.81057   1.000
    Cd5     Cd   0.61262   0.70981   0.92955   1.000
    Cd6     Cd   0.50632   0.83495   0.62613   1.000
    Cd7     Cd   0.60810   0.45771   0.69060   1.000
    Cd8     Cd   0.37871   0.21482   0.57025   1.000
    Cd9     Cd   0.00920   0.66445   0.37269   1.000
    Cd10    Cd   0.11644   0.03972   0.31206   1.000
    Cd11    Cd   0.87863   0.28897   0.42953   1.000
    Cd12    Cd   0.00042   0.83351   0.87345   1.000
    Cd13    Cd   0.10729   0.45658   0.81092   1.000
    Cd14    Cd   0.87740   0.21389   0.93134   1.000
    Cd15    Cd   0.51053   0.67055   0.12680   1.000
    Cd16    Cd   0.62117   0.04390   0.18980   1.000
    Cd17    Cd   0.38547   0.29339   0.07195   1.000
    Cd18    Cd   0.49424   0.16396   0.37490   1.000
    Cd19    Cd   0.39256   0.54186   0.31150   1.000
    Cd20    Cd   0.62240   0.78480   0.43151   1.000
    Cd21    Cd   0.98940   0.33660   0.62525   1.000
    Cd22    Cd   0.88539   0.96096   0.68750   1.000
    Cd23    Cd   0.12181   0.71226   0.56910   1.000
    C24     C    0.93157   0.39015   0.16611   1.000
    C25     C    0.77028   0.08254   0.16350   1.000
    C26     C    0.08659   0.93777   0.08536   1.000
    C27     C    0.23379   0.24245   0.08536   1.000
    C28     C    0.03286   0.68028   0.11000   1.000
    C29     C    0.90424   0.20322   0.01000   1.000
    C30     C    0.08773   0.08889   0.23751   1.000
    C31     C    0.43206   0.10163   0.83373   1.000
    C32     C    0.25587   0.41120   0.83625   1.000
    C33     C    0.54638   0.56784   0.91521   1.000
    C34     C    0.72338   0.26385   0.91906   1.000
    C35     C    0.52760   0.80136   0.87844   1.000
    C36     C    0.39853   0.29973   0.99230   1.000
    C37     C    0.57747   0.40854   0.76481   1.000
    C38     C    0.55877   0.60372   0.66864   1.000
    C39     C    0.73716   0.91412   0.66377   1.000
    C40     C    0.44364   0.06964   0.58510   1.000
    C41     C    0.27319   0.76452   0.58195   1.000
    C42     C    0.46252   0.30684   0.62050   1.000
    C43     C    0.60310   0.79293   0.51083   1.000
    C44     C    0.41319   0.91382   0.73573   1.000
    C45     C    0.06583   0.89554   0.33331   1.000
    C46     C    0.24203   0.58518   0.33620   1.000
    C47     C    0.94326   0.43129   0.41284   1.000
    C48     C    0.77612   0.73544   0.41708   1.000
    C49     C    0.96539   0.19386   0.38039   1.000
    C50     C    0.10448   0.70050   0.48988   1.000
    C51     C    0.92575   0.59153   0.26022   1.000
    C52     C    0.05367   0.60220   0.83176   1.000
    C53     C    0.23233   0.91185   0.83555   1.000
    C54     C    0.93865   0.06788   0.91387   1.000
    C55     C    0.76152   0.76542   0.91458   1.000
    C56     C    0.96145   0.30643   0.88100   1.000
    C57     C    0.07881   0.78701   0.99028   1.000
    C58     C    0.91578   0.91298   0.76236   1.000
    C59     C    0.57341   0.89899   0.16690   1.000
    C60     C    0.74110   0.57980   0.16213   1.000
    C61     C    0.44767   0.43768   0.08600   1.000
    C62     C    0.27882   0.75377   0.08864   1.000
    C63     C    0.47273   0.19967   0.12131   1.000
    C64     C    0.60164   0.70202   0.00886   1.000
    C65     C    0.42488   0.59183   0.23772   1.000
    C66     C    0.44057   0.39551   0.33325   1.000
    C67     C    0.26405   0.08481   0.33753   1.000
    C68     C    0.55850   0.93032   0.41630   1.000
    C69     C    0.72717   0.23640   0.41751   1.000
    C70     C    0.53638   0.69194   0.38245   1.000
    C71     C    0.39792   0.20578   0.49097   1.000
    C72     C    0.58701   0.08954   0.26427   1.000
    C73     C    0.93557   0.10506   0.66592   1.000
    C74     C    0.75743   0.41437   0.66413   1.000
    C75     C    0.05496   0.57039   0.58488   1.000
    C76     C    0.22484   0.26602   0.58262   1.000
    C77     C    0.03525   0.80664   0.61872   1.000
    C78     C    0.89636   0.29999   0.50875   1.000
    C79     C    0.07685   0.41086   0.73607   1.000
    N80     N    0.95790   0.31293   0.15353   1.000
    N81     N    0.84912   0.10317   0.14932   1.000
    N82     N    0.05381   0.01381   0.09640   1.000
    N83     N    0.15373   0.22030   0.09719   1.000
    N84     N    0.98559   0.63174   0.13565   1.000
    N85     N    0.93314   0.19745   0.04980   1.000
    N86     N    0.06892   0.11840   0.19889   1.000
    N87     N    0.45572   0.17783   0.84770   1.000
    N88     N    0.33461   0.38839   0.85056   1.000
    N89     N    0.52236   0.48907   0.90547   1.000
    N90     N    0.64259   0.28472   0.90678   1.000
    N91     N    0.47976   0.85518   0.85512   1.000
    N92     N    0.42101   0.30113   0.95141   1.000
    N93     N    0.55744   0.37979   0.80333   1.000
    N94     N    0.53776   0.68159   0.65497   1.000
    N95     N    0.65864   0.89098   0.65029   1.000
    N96     N    0.46867   0.99030   0.59471   1.000
    N97     N    0.35272   0.78721   0.59426   1.000
    N98     N    0.50993   0.35881   0.64427   1.000
    N99     N    0.57729   0.79696   0.55124   1.000
    N100    N    0.43511   0.88554   0.69723   1.000
    N101    N    0.04374   0.81831   0.34653   1.000
    N102    N    0.16231   0.60649   0.34998   1.000
    N103    N    0.96888   0.50913   0.40225   1.000
    N104    N    0.85650   0.71448   0.40411   1.000
    N105    N    0.01492   0.14022   0.35769   1.000
    N106    N    0.07909   0.69619   0.44946   1.000
    N107    N    0.94363   0.61931   0.29916   1.000
    N108    N    0.03135   0.68019   0.84485   1.000
    N109    N    0.15464   0.88739   0.84964   1.000
    N110    N    0.96038   0.98817   0.90321   1.000
    N111    N    0.84052   0.78784   0.90128   1.000
    N112    N    0.00814   0.35946   0.85754   1.000
    N113    N    0.05734   0.79486   0.94946   1.000
    N114    N    0.93543   0.88368   0.80092   1.000
    N115    N    0.55122   0.82157   0.15398   1.000
    N116    N    0.66263   0.60819   0.14991   1.000
    N117    N    0.47170   0.51645   0.09594   1.000
    N118    N    0.35947   0.72834   0.09905   1.000
    N119    N    0.52142   0.14616   0.14440   1.000
    N120    N    0.57992   0.69940   0.04982   1.000
    N121    N    0.44467   0.62142   0.19933   1.000
    N122    N    0.46071   0.31739   0.34680   1.000
    N123    N    0.34251   0.10727   0.35137   1.000
    N124    N    0.53395   0.00958   0.40626   1.000
    N125    N    0.64716   0.21359   0.40603   1.000
    N126    N    0.48866   0.63972   0.35901   1.000
    N127    N    0.42345   0.20136   0.45053   1.000
    N128    N    0.56513   0.11604   0.30308   1.000
    N129    N    0.95747   0.18210   0.65232   1.000
    N130    N    0.83636   0.39320   0.64934   1.000
    N131    N    0.02819   0.49271   0.59505   1.000
    N132    N    0.14377   0.28746   0.59435   1.000
    N133    N    0.98606   0.85993   0.64179   1.000
    N134    N    0.92108   0.30385   0.54926   1.000
    N135    N    0.05739   0.38314   0.69732   1.000
loop_
    _geom_bond_atom_site_label_1
    _geom_bond_atom_site_label_2
    _geom_bond_distance
    _geom_bond_site_symmetry_2
    _ccdc_geom_bond_type
    C64    N120      1.16990      .   S
    C64    Cd5       2.20050  1_554   S
    C29    N85       1.16991      .   S
    C29    Cd14      2.20985  1_554   S
    N85    Cd0       2.33238  1_655   S
    N120   Cd15      2.35924      .   S
    Cd2    C26       2.23898      .   S
    Cd2    C62       2.21357      .   S
    Cd2    C28       2.21146      .   S
    Cd2    C57       2.21288  1_554   S
    Cd17   C27       2.19859      .   S
    Cd17   C61       2.20562      .   S
    Cd17   C63       2.20582      .   S
    Cd17   C36       2.21099  1_554   S
    C27    N83       1.16983      .   S
    C26    N82       1.17103  1_565   S
    C61    N117      1.17113      .   S
    C62    N118      1.17048      .   S
    N117   Cd15      2.35666      .   S
    N82    Cd0       2.30539      .   S
    N83    Cd0       2.36322      .   S
    N118   Cd15      2.30228      .   S
    C28    N84       1.16951  1_455   S
    C63    N119      1.16894      .   S
    Cd0    N81       2.29208  1_455   S
    Cd0    N80       2.27921  1_455   S
    Cd0    N86       2.30381      .   S
    Cd15   N116      2.29692      .   S
    Cd15   N115      2.28909      .   S
    Cd15   N121      2.29786      .   S
    N84    Cd1       2.26632      .   S
    N119   Cd16      2.30375      .   S
    N81    C25       1.16914      .   S
    N116   C60       1.16964      .   S
    N80    C24       1.16948      .   S
    N115   C59       1.16916      .   S
    C60    Cd1       2.22115      .   S
    C25    Cd16      2.20506      .   S
    C24    Cd1       2.20688      .   S
    C59    Cd16      2.20214  1_565   S
    Cd1    C51       2.19317      .   S
    Cd16   C72       2.19872      .   S
    N86    C30       1.16944      .   S
    N121   C65       1.16920      .   S
    C30    Cd10      2.20291      .   S
    C65    Cd19      2.19852      .   S
    C51    N107      1.16939      .   S
    C72    N128      1.16921      .   S
    N107   Cd9       2.30673  1_655   S
    N128   Cd18      2.29388      .   S
    Cd19   C66       2.19346      .   S
    Cd19   C46       2.20784      .   S
    Cd19   N126      2.29730      .   S
    Cd10   C45       2.19212  1_545   S
    Cd10   C67       2.20564      .   S
    Cd10   N105      2.30391      .   S
    C66    N122      1.16845      .   S
    C45    N101      1.16896      .   S
    C46    N102      1.16989      .   S
    C67    N123      1.16916      .   S
    N101   Cd9       2.29632      .   S
    N122   Cd18      2.29235      .   S
    N102   Cd9       2.28314      .   S
    N123   Cd18      2.29164      .   S
    N105   C49       1.16925  1_455   S
    N126   C70       1.16896      .   S
    Cd9    N103      2.36376  1_455   S
    Cd9    N104      2.32242  1_455   S
    Cd9    N106      2.36639      .   S
    Cd18   N125      2.34240      .   S
    Cd18   N124      2.35275      .   S
    Cd18   N127      2.35002      .   S
    C49    Cd11      2.20715      .   S
    C70    Cd20      2.20673      .   S
    N103   C47       1.16989      .   S
    N104   C48       1.16978      .   S
    N125   C69       1.16988      .   S
    N124   C68       1.17011  1_545   S
    C47    Cd11      2.20800      .   S
    C68    Cd20      2.21084      .   S
    C48    Cd20      2.20113      .   S
    C69    Cd11      2.19839      .   S
    Cd11   C78       2.20926      .   S
    Cd20   C43       2.21079      .   S
    N106   C50       1.17085      .   S
    N127   C71       1.17048      .   S
    C50    Cd23      2.20941      .   S
    C71    Cd8       2.21019      .   S
    C78    N134      1.17032      .   S
    C43    N99       1.17053      .   S
    N134   Cd21      2.34126      .   S
    N99    Cd6       2.33458      .   S
    Cd23   C41       2.19947      .   S
    Cd23   C75       2.20961      .   S
    Cd23   C77       2.20805      .   S
    Cd8    C76       2.20119      .   S
    Cd8    C40       2.20992      .   S
    Cd8    C42       2.20481      .   S
    C41    N97       1.17008      .   S
    C76    N132      1.16995      .   S
    C75    N131      1.16999      .   S
    C40    N96       1.17030  1_545   S
    N97    Cd6       2.35027      .   S
    N132   Cd21      2.33338  1_455   S
    N96    Cd6       2.35955      .   S
    N131   Cd21      2.37496  1_455   S
    C77    N133      1.16921  1_455   S
    C42    N98       1.16955      .   S
    Cd21   N130      2.28681      .   S
    Cd21   N129      2.30526      .   S
    Cd21   N135      2.28970  1_655   S
    Cd6    N95       2.30050      .   S
    Cd6    N94       2.29363      .   S
    Cd6    N100      2.28914      .   S
    N133   Cd22      2.30286      .   S
    N98    Cd7       2.30352      .   S
    N130   C74       1.16920      .   S
    N95    C39       1.16933      .   S
    N129   C73       1.16914      .   S
    N94    C38       1.16897      .   S
    C39    Cd22      2.20559      .   S
    C74    Cd7       2.20895      .   S
    C73    Cd22      2.19173  1_545   S
    C38    Cd7       2.19574      .   S
    Cd22   C58       2.20997      .   S
    Cd7    C37       2.20167      .   S
    N100   C44       1.16937      .   S
    N135   C79       1.16901      .   S
    C44    Cd4       2.20840      .   S
    C79    Cd13      2.20427      .   S
    C58    N114      1.16936      .   S
    C37    N93       1.16919      .   S
    N114   Cd12      2.29144  1_655   S
    N93    Cd3       2.28946      .   S
    Cd4    C31       2.19392  1_565   S
    Cd4    C53       2.19783      .   S
    Cd4    N91       2.31602      .   S
    Cd13   C52       2.19905      .   S
    Cd13   C32       2.19907      .   S
    Cd13   N112      2.29925      .   S
    C52    N108      1.16913      .   S
    C31    N87       1.16860      .   S
    C53    N109      1.16910      .   S
    C32    N88       1.16905      .   S
    N108   Cd12      2.28871      .   S
    N87    Cd3       2.29994      .   S
    N109   Cd12      2.30876      .   S
    N88    Cd3       2.29550      .   S
    N91    C35       1.16884      .   S
    N112   C56       1.16775  1_455   S
    Cd12   N111      2.37697  1_455   S
    Cd12   N110      2.34028  1_455   S
    Cd12   N113      2.29761      .   S
    Cd3    N89       2.38089      .   S
    Cd3    N90       2.34029      .   S
    Cd3    N92       2.33939      .   S
    C35    Cd5       2.20374      .   S
    C56    Cd14      2.21050      .   S
    N111   C55       1.16982      .   S
    N110   C54       1.17033  1_565   S
    N89    C33       1.16983      .   S
    N90    C34       1.16996      .   S
    C54    Cd14      2.21593      .   S
    C55    Cd5       2.19422      .   S
    C33    Cd5       2.20026      .   S
    C34    Cd14      2.19837      .   S
    N113   C57       1.17005      .   S
    N92    C36       1.17017      .   S
