# CIF file generated by openbabel 2.4.90, see http://openbabel.sf.net
data_I
_chemical_name_common ''
_cell_length_a 11.804
_cell_length_b 11.438
_cell_length_c 27.327
_cell_angle_alpha 89.971
_cell_angle_beta 90.057
_cell_angle_gamma 82.266
_space_group_name_H-M_alt 'P 1'
_space_group_name_Hall 'P 1'
loop_
    _symmetry_equiv_pos_as_xyz
    x,y,z
loop_
    _atom_site_label
    _atom_site_type_symbol
    _atom_site_fract_x
    _atom_site_fract_y
    _atom_site_fract_z
    _atom_site_occupancy
    Zn0     Zn   0.74956   0.74974   0.66217   1.000
    Zn1     Zn   0.25039   0.25028   0.33783   1.000
    Zn2     Zn   0.24978   0.24994   0.84319   1.000
    H3      H    0.13952   0.58493   0.84202   1.000
    H4      H    0.99607   0.60509   0.77378   1.000
    H5      H    0.96547   0.98232   0.79092   1.000
    H6      H    0.10576   0.95101   0.86013   1.000
    H7      H    0.43828   0.88424   0.94555   1.000
    H8      H    0.57464   0.86507   0.01705   1.000
    H9      H    0.45044   0.53932   0.05392   1.000
    H10     H    0.31831   0.57012   0.98165   1.000
    H11     H    0.35996   0.91487   0.84184   1.000
    H12     H    0.50297   0.89478   0.77359   1.000
    H13     H    0.53383   0.51756   0.79091   1.000
    H14     H    0.39385   0.54877   0.86008   1.000
    H15     H    0.06210   0.61554   0.94587   1.000
    H16     H    0.92611   0.63478   0.01736   1.000
    H17     H    0.05009   0.96087   0.05380   1.000
    H18     H    0.18179   0.93001   0.98161   1.000
    H19     H    0.59512   0.13085   0.34269   1.000
    H20     H    0.61695   0.98855   0.27248   1.000
    H21     H    0.98230   0.96855   0.28808   1.000
    H22     H    0.94969   0.10852   0.35858   1.000
    H23     H    0.87529   0.44457   0.44847   1.000
    H24     H    0.85337   0.57940   0.52182   1.000
    H25     H    0.53698   0.44710   0.55357   1.000
    H26     H    0.57005   0.31694   0.47963   1.000
    H27     H    0.90582   0.36883   0.34283   1.000
    H28     H    0.88398   0.51105   0.27250   1.000
    H29     H    0.51863   0.53181   0.28800   1.000
    H30     H    0.55123   0.39184   0.35866   1.000
    H31     H    0.62477   0.05503   0.44814   1.000
    Zn32    Zn   0.75016   0.75008   0.15681   1.000
    H33     H    0.64634   0.91947   0.52129   1.000
    H34     H    0.96278   0.05116   0.55380   1.000
    H35     H    0.92999   0.18214   0.48003   1.000
    H36     H    0.40486   0.86917   0.65732   1.000
    H37     H    0.38301   0.01148   0.72750   1.000
    H38     H    0.01766   0.03145   0.71192   1.000
    H39     H    0.05030   0.89147   0.64142   1.000
    H40     H    0.12470   0.55544   0.55150   1.000
    H41     H    0.14660   0.42062   0.47818   1.000
    H42     H    0.46300   0.55290   0.44643   1.000
    H43     H    0.42994   0.68305   0.52037   1.000
    H44     H    0.09416   0.63119   0.65717   1.000
    H45     H    0.11598   0.48898   0.72750   1.000
    H46     H    0.48133   0.46820   0.71196   1.000
    H47     H    0.44875   0.60816   0.64135   1.000
    H48     H    0.37522   0.94499   0.55186   1.000
    H49     H    0.35364   0.08056   0.47872   1.000
    H50     H    0.03721   0.94884   0.44600   1.000
    H51     H    0.07001   0.81785   0.51997   1.000
    H52     H    0.86043   0.41508   0.15798   1.000
    H53     H    0.00388   0.39492   0.22622   1.000
    H54     H    0.03449   0.01770   0.20908   1.000
    H55     H    0.89420   0.04900   0.13987   1.000
    H56     H    0.56167   0.11576   0.05445   1.000
    H57     H    0.42532   0.13494   0.98295   1.000
    H58     H    0.54952   0.46069   0.94608   1.000
    H59     H    0.68165   0.42988   0.01835   1.000
    H60     H    0.63999   0.08515   0.15810   1.000
    H61     H    0.49698   0.10523   0.22641   1.000
    H62     H    0.46614   0.48246   0.20909   1.000
    H63     H    0.60612   0.45124   0.13990   1.000
    H64     H    0.93786   0.38447   0.05410   1.000
    H65     H    0.07384   0.36522   0.98264   1.000
    H66     H    0.94986   0.03913   0.94610   1.000
    H67     H    0.81816   0.07000   0.01839   1.000
    Pd68    Pd   0.24994   0.74994   0.90710   1.000
    Pd69    Pd   0.75033   0.24980   0.40710   1.000
    Pd70    Pd   0.24966   0.75020   0.59286   1.000
    Pd71    Pd   0.75001   0.25007   0.09290   1.000
    C72     C    0.07907   0.87696   0.83995   1.000
    C73     C    0.00147   0.89327   0.80159   1.000
    C74     C    0.97277   0.79535   0.77607   1.000
    C75     C    0.89479   0.81320   0.73170   1.000
    C76     C    0.01983   0.68288   0.79188   1.000
    C77     C    0.09772   0.67125   0.83026   1.000
    C78     C    0.37455   0.63431   0.99161   1.000
    C79     C    0.44871   0.61748   0.03106   1.000
    C80     C    0.52310   0.69988   0.04086   1.000
    C81     C    0.51872   0.79847   0.01012   1.000
    C82     C    0.44351   0.80991   0.97079   1.000
    C83     C    0.60936   0.67832   0.08202   1.000
    C84     C    0.42042   0.62286   0.83988   1.000
    C85     C    0.49787   0.60660   0.80153   1.000
    C86     C    0.52640   0.70452   0.77596   1.000
    C87     C    0.60433   0.68678   0.73163   1.000
    C88     C    0.47938   0.81696   0.79172   1.000
    C89     C    0.40169   0.82855   0.83011   1.000
    C90     C    0.12571   0.86574   0.99164   1.000
    C91     C    0.05173   0.88263   0.03108   1.000
    C92     C    0.97739   0.80021   0.04097   1.000
    C93     C    0.98190   0.70147   0.01034   1.000
    C94     C    0.05690   0.68998   0.97102   1.000
    C95     C    0.89103   0.82175   0.08204   1.000
    C96     C    0.87842   0.07940   0.33853   1.000
    C97     C    0.89549   0.00193   0.29932   1.000
    C98     C    0.80123   0.97061   0.27384   1.000
    C99     C    0.81890   0.89292   0.22860   1.000
    O100    O    0.92869   0.83557   0.58961   1.000
    O101    O    0.27375   0.11482   0.79608   1.000
    O102    O    0.08306   0.15483   0.78128   1.000
    O103    O    0.24071   0.37888   0.38921   1.000
    C104    C    0.69176   0.01433   0.29060   1.000
    C105    C    0.67926   0.09167   0.32994   1.000
    C106    C    0.63164   0.37437   0.49100   1.000
    C107    C    0.61353   0.44763   0.53145   1.000
    C108    C    0.69263   0.52389   0.54316   1.000
    C109    C    0.78927   0.52224   0.51329   1.000
    C110    C    0.80221   0.44781   0.47300   1.000
    C111    C    0.67056   0.60994   0.58531   1.000
    C112    C    0.62251   0.42073   0.33858   1.000
    C113    C    0.60544   0.49820   0.29933   1.000
    C114    C    0.69964   0.52934   0.27384   1.000
    C115    C    0.68171   0.60709   0.22865   1.000
    C116    C    0.80916   0.48542   0.29063   1.000
    C117    C    0.82168   0.40809   0.33002   1.000
    C118    C    0.86838   0.12453   0.49124   1.000
    C119    C    0.88632   0.05079   0.53155   1.000
    C120    C    0.80718   0.97442   0.54299   1.000
    C121    C    0.71060   0.97654   0.51296   1.000
    C122    C    0.69783   0.05142   0.47277   1.000
    C123    C    0.82888   0.88798   0.58509   1.000
    C124    C    0.12155   0.92060   0.66147   1.000
    C125    C    0.10448   0.99806   0.70068   1.000
    C126    C    0.19874   0.02941   0.72616   1.000
    C127    C    0.18106   0.10711   0.77133   1.000
    C128    C    0.30821   0.98568   0.70940   1.000
    C129    C    0.32072   0.90834   0.67006   1.000
    C130    C    0.36835   0.62564   0.50894   1.000
    C131    C    0.38645   0.55237   0.46855   1.000
    C132    C    0.30734   0.47612   0.45684   1.000
    C133    C    0.21071   0.47778   0.48671   1.000
    C134    C    0.19777   0.55220   0.52700   1.000
    C135    C    0.32940   0.39007   0.41469   1.000
    C136    C    0.37746   0.57928   0.66142   1.000
    C137    C    0.39453   0.50182   0.70068   1.000
    C138    C    0.30031   0.47068   0.72616   1.000
    C139    C    0.31824   0.39292   0.77135   1.000
    C140    C    0.19080   0.51462   0.70938   1.000
    C141    C    0.17829   0.59194   0.66998   1.000
    C142    C    0.13161   0.87547   0.50876   1.000
    C143    C    0.11367   0.94921   0.46845   1.000
    C144    C    0.19281   0.02559   0.45701   1.000
    C145    C    0.28938   0.00000   0.48705   1.000
    C146    C    0.30216   0.94859   0.52723   1.000
    C147    C    0.17110   0.11203   0.41491   1.000
    C148    C    0.92088   0.12305   0.16005   1.000
    C149    C    0.99849   0.10675   0.19841   1.000
    C150    C    0.02718   0.20466   0.22393   1.000
    C151    C    0.10516   0.18682   0.26830   1.000
    C152    C    0.98012   0.31713   0.20812   1.000
    C153    C    0.90223   0.32876   0.16974   1.000
    C154    C    0.62540   0.36570   0.00839   1.000
    C155    C    0.55124   0.38252   0.96894   1.000
    C156    C    0.47685   0.30013   0.95914   1.000
    C157    C    0.48123   0.20153   0.98988   1.000
    C158    C    0.55645   0.19010   0.02921   1.000
    C159    C    0.39058   0.32169   0.91798   1.000
    C160    C    0.57954   0.37715   0.16013   1.000
    C161    C    0.50209   0.39341   0.19848   1.000
    C162    C    0.47356   0.29549   0.22404   1.000
    C163    C    0.39562   0.31324   0.26837   1.000
    C164    C    0.52058   0.18306   0.20828   1.000
    C165    C    0.59827   0.17146   0.16900   1.000
    C166    C    0.87425   0.13426   0.00836   1.000
    C167    C    0.94822   0.11738   0.96892   1.000
    C168    C    0.02256   0.19981   0.95903   1.000
    C169    C    0.00000   0.29854   0.98966   1.000
    C170    C    0.94305   0.31003   0.02899   1.000
    C171    C    0.10892   0.17827   0.91796   1.000
    N172    N    0.37231   0.72901   0.96173   1.000
    N173    N    0.12714   0.76740   0.85340   1.000
    N174    N    0.12793   0.77096   0.96184   1.000
    N175    N    0.37238   0.73239   0.85338   1.000
    N176    N    0.72460   0.37472   0.46210   1.000
    N177    N    0.77166   0.12421   0.35309   1.000
    N178    N    0.77556   0.12454   0.46210   1.000
    N179    N    0.72929   0.37570   0.35316   1.000
    N180    N    0.27539   0.62529   0.53790   1.000
    N181    N    0.22833   0.87581   0.64691   1.000
    N182    N    0.22444   0.87547   0.53790   1.000
    N183    N    0.27069   0.62430   0.64684   1.000
    N184    N    0.62764   0.27099   0.03827   1.000
    N185    N    0.87281   0.23261   0.14650   1.000
    N186    N    0.87203   0.22905   0.03817   1.000
    N187    N    0.62757   0.26762   0.14662   1.000
    O188    O    0.88148   0.71706   0.70845   1.000
    O189    O    0.85178   0.91505   0.72083   1.000
    O190    O    0.62424   0.77069   0.10624   1.000
    O191    O    0.65760   0.57464   0.08748   1.000
    O192    O    0.61721   0.78290   0.70824   1.000
    O193    O    0.64781   0.58502   0.72092   1.000
    O194    O    0.87609   0.72937   0.10627   1.000
    O195    O    0.84267   0.92539   0.08742   1.000
    O196    O    0.72620   0.88518   0.20393   1.000
    O197    O    0.91689   0.84517   0.21870   1.000
    O198    O    0.75925   0.62113   0.61079   1.000
    O199    O    0.57036   0.66128   0.58982   1.000
    O200    O    0.77427   0.61484   0.20389   1.000
    O201    O    0.58364   0.65487   0.21873   1.000
    O202    O    0.74012   0.87770   0.61061   1.000
    O203    O    0.42960   0.33873   0.41018   1.000
    O204    O    0.22568   0.38519   0.79611   1.000
    O205    O    0.41631   0.34515   0.78127   1.000
    O206    O    0.25986   0.12230   0.38939   1.000
    O207    O    0.07129   0.16443   0.41039   1.000
    O208    O    0.11847   0.28296   0.29155   1.000
    O209    O    0.14816   0.08496   0.27917   1.000
    O210    O    0.37571   0.22932   0.89376   1.000
    O211    O    0.34235   0.42537   0.91252   1.000
    O212    O    0.38274   0.21712   0.29176   1.000
    O213    O    0.35213   0.41500   0.27908   1.000
    O214    O    0.12385   0.27065   0.89373   1.000
    O215    O    0.15727   0.07462   0.91258   1.000
loop_
    _geom_bond_atom_site_label_1
    _geom_bond_atom_site_label_2
    _geom_bond_distance
    _geom_bond_site_symmetry_2
    _ccdc_geom_bond_type
    C166   H67       1.08853      .   S
    C166   N186      1.35389      .   S
    C166   C167      1.38497  1_554   S
    C154   H59       1.08850      .   S
    C154   N184      1.35359      .   S
    C154   C155      1.38499  1_554   S
    C81    H8        1.08946      .   S
    C81    C80       1.40123      .   S
    C81    C82       1.38821  1_554   S
    C93    H16       1.08978      .   S
    C93    C92       1.40133      .   S
    C93    C94       1.38793  1_654   S
    C170   N186      1.35386      .   S
    C170   H64       1.08915      .   S
    C170   C169      1.26573  1_654   S
    C158   N184      1.35378      .   S
    C158   H56       1.08982      .   S
    C158   C157      1.38821  1_554   S
    C79    C80       1.39765      .   S
    C79    H9        1.08831      .   S
    C79    C78       1.38499  1_554   S
    C91    C92       1.39810  1_455   S
    C91    H17       1.08756      .   S
    C91    C90       1.38498  1_554   S
    N186   Pd71      2.06892      .   S
    N184   Pd71      2.06755      .   S
    C80    C83       1.51414      .   S
    C92    C95       1.51473      .   S
    C83    O191      1.25328      .   S
    C83    O190      1.27888      .   S
    C95    O195      1.25337      .   S
    C95    O194      1.27895      .   S
    Pd71   N185      2.05034      .   S
    Pd71   N187      2.05197      .   S
    O190   Zn32      2.01887      .   S
    O194   Zn32      2.02064      .   S
    H55    C148      1.09207      .   S
    H63    C160      1.09251      .   S
    N185   C148      1.35545      .   S
    N185   C153      1.35518      .   S
    N187   C160      1.35541      .   S
    N187   C165      1.34369      .   S
    Zn32   O200      2.00191      .   S
    Zn32   O196      2.00282      .   S
    H52    C153      1.09074      .   S
    H60    C165      1.08429      .   S
    C148   C149      1.38736      .   S
    C160   C161      1.38745      .   S
    C165   C164      1.40715      .   S
    C153   C152      1.38856      .   S
    C149   H54       1.08901  1_655   S
    C149   C150      1.39919  1_655   S
    C161   H62       1.08886      .   S
    C161   C162      1.39892      .   S
    O200   C115      1.29880      .   S
    O196   C99       1.29785      .   S
    C152   C150      1.39881  1_655   S
    C152   H53       1.08737  1_655   S
    C164   C162      1.39869      .   S
    C164   H61       1.08719      .   S
    O197   C99       1.24100      .   S
    O201   C115      1.24140      .   S
    C150   C151      1.51856      .   S
    C162   C163      1.51897      .   S
    C99    C98       1.52095      .   S
    C115   C114      1.51931      .   S
    C151   O209      1.24234      .   S
    C151   O208      1.29791      .   S
    C163   O213      1.24241      .   S
    C163   O212      1.29801      .   S
    H20    C104      1.08687  1_565   S
    H28    C116      1.08709      .   S
    C98    C104      1.39896  1_565   S
    C98    C97       1.39896  1_565   S
    C114   C116      1.39923      .   S
    C114   C113      1.39879      .   S
    H29    C113      1.08943      .   S
    H21    C97       1.08895  1_565   S
    C104   C105      1.38785      .   S
    C116   C117      1.38794      .   S
    O208   Zn1       2.00074      .   S
    O212   Zn1       2.00364      .   S
    C97    C96       1.38818      .   S
    C113   C112      1.38808      .   S
    C105   H19       1.09075      .   S
    C105   N177      1.35512      .   S
    C117   H27       1.09070      .   S
    C117   N179      1.35513      .   S
    Zn1    O103      2.02617      .   S
    Zn1    O206      2.02334      .   S
    C96    N177      1.35525      .   S
    C96    H22       1.09247      .   S
    C112   N179      1.35526      .   S
    C112   H30       1.09257      .   S
    N177   Pd69      2.05209      .   S
    N179   Pd69      2.05155      .   S
    O103   C135      1.27747      .   S
    O206   C147      1.27769      .   S
    Pd69   N178      2.06947      .   S
    Pd69   N176      2.06853      .   S
    O203   C135      1.25394      .   S
    O207   C147      1.25386      .   S
    C135   C132      1.51522      .   S
    C147   C144      1.51551      .   S
    H50    C143      1.09123      .   S
    H42    C131      1.08833      .   S
    H31    C122      1.08983      .   S
    H23    C110      1.08964      .   S
    C132   C131      1.39787      .   S
    C132   C133      1.40136      .   S
    C144   C143      1.39771  1_545   S
    C144   C145      1.40251      .   S
    N178   C122      1.35389      .   S
    N178   C118      1.35384      .   S
    N176   C110      1.35384      .   S
    N176   C106      1.35301      .   S
    C143   C142      1.38570      .   S
    C131   C130      1.38540      .   S
    C122   C121      1.38797  1_545   S
    C110   C109      1.38798      .   S
    H41    C133      1.08963      .   S
    H49    C145      1.29008      .   S
    H26    C106      1.08849      .   S
    H35    C118      1.08911      .   S
    C133   C134      1.38796      .   S
    C145   C146      1.24468  1_545   S
    C106   C107      1.38673      .   S
    C118   C119      1.38569      .   S
    C142   H51       1.08912      .   S
    C142   N182      1.35384      .   S
    C130   H43       1.08897      .   S
    C130   N180      1.35397      .   S
    C121   H33       1.08940      .   S
    C121   C120      1.40151      .   S
    C109   H24       1.08962      .   S
    C109   C108      1.40140      .   S
    C134   N180      1.35384      .   S
    C134   H40       1.08911      .   S
    C146   N182      1.35390      .   S
    C146   H48       1.08981      .   S
    C107   C108      1.39788      .   S
    C107   H25       1.08833      .   S
    C119   C120      1.39769  1_545   S
    C119   H34       1.08818      .   S
    N180   Pd70      2.06774      .   S
    N182   Pd70      2.06866      .   S
    C120   C123      1.51553      .   S
    C108   C111      1.51524      .   S
    C123   O100      1.25386      .   S
    C123   O202      1.27774      .   S
    C111   O199      1.25393      .   S
    C111   O198      1.27743      .   S
    Pd70   N183      2.05237      .   S
    Pd70   N181      2.05295      .   S
    O202   Zn0       2.02325      .   S
    O198   Zn0       2.02618      .   S
    H47    C136      1.09244      .   S
    H39    C124      1.09242      .   S
    N183   C136      1.35519      .   S
    N183   C141      1.35511      .   S
    N181   C124      1.35522      .   S
    N181   C129      1.35504      .   S
    H44    C141      1.09066      .   S
    H36    C129      1.09067      .   S
    C136   C137      1.38823      .   S
    C124   C125      1.38819      .   S
    Zn0    O192      2.00361      .   S
    Zn0    O188      2.00075      .   S
    C141   C140      1.38809      .   S
    C129   C128      1.38786      .   S
    C137   H46       1.08904      .   S
    C137   C138      1.39874      .   S
    C125   H38       1.08899  1_565   S
    C125   C126      1.39902  1_565   S
    O192   C87       1.29802      .   S
    O188   C75       1.29792      .   S
    C140   C138      1.39914      .   S
    C140   H45       1.08700      .   S
    C128   C126      1.39902  1_565   S
    C128   H37       1.08663  1_565   S
    O189   C75       1.24236      .   S
    O193   C87       1.24240      .   S
    C138   C139      1.51940      .   S
    C126   C127      1.51948      .   S
    C87    C86       1.51894      .   S
    C75    C74       1.51856      .   S
    C127   O102      1.24125      .   S
    C127   O101      1.29883      .   S
    C139   O205      1.24137      .   S
    C139   O204      1.29871      .   S
    H12    C88       1.08718      .   S
    H4     C76       1.08737  1_655   S
    C86    C88       1.39868      .   S
    C86    C85       1.39904      .   S
    C74    C76       1.39881  1_655   S
    C74    C73       1.39918  1_655   S
    H13    C85       1.08893      .   S
    H5     C73       1.08901  1_655   S
    C88    C89       1.38869      .   S
    C76    C77       1.38856      .   S
    O101   Zn2       2.00272      .   S
    O204   Zn2       2.00199      .   S
    C85    C84       1.38745      .   S
    C73    C72       1.38735      .   S
    C89    H11       1.09077      .   S
    C89    N175      1.35493      .   S
    C77    H3        1.09074      .   S
    C77    N173      1.35392      .   S
    C84    N175      1.35536      .   S
    C84    H14       1.09211      .   S
    C72    N173      1.35470      .   S
    C72    H6        1.09208      .   S
    Zn2    O214      2.02065      .   S
    Zn2    O210      2.01890      .   S
    N175   Pd68      2.05199      .   S
    N173   Pd68      2.05230      .   S
    O214   C171      1.27896      .   S
    O210   C159      1.27889      .   S
    Pd68   N172      2.06756      .   S
    Pd68   N174      2.06912      .   S
    O211   C159      1.25327      .   S
    O215   C171      1.25336      .   S
    C171   C168      1.51470      .   S
    C159   C156      1.51416      .   S
    H7     C82       1.08981      .   S
    H15    C94       1.08985      .   S
    H58    C155      1.08831      .   S
    H66    C167      1.08912      .   S
    C168   C167      1.39811  1_455   S
    C168   C169      1.40262      .   S
    C156   C155      1.39765      .   S
    C156   C157      1.40124      .   S
    N172   C82       1.35378      .   S
    N172   C78       1.35358      .   S
    N174   C94       1.35385      .   S
    N174   C90       1.35373      .   S
    H18    C90       1.08853      .   S
    H10    C78       1.08850      .   S
    H65    C169      1.24799      .   S
    H57    C157      1.08945      .   S
