# CIF file generated by openbabel 2.4.90, see http://openbabel.sf.net
data_I
_chemical_name_common ''
_cell_length_a 11.804
_cell_length_b 11.438
_cell_length_c 27.327
_cell_angle_alpha 89.971
_cell_angle_beta 90.057
_cell_angle_gamma 82.266
_space_group_name_H-M_alt 'P 1'
_space_group_name_Hall 'P 1'
loop_
    _symmetry_equiv_pos_as_xyz
    x,y,z
loop_
    _atom_site_label
    _atom_site_type_symbol
    _atom_site_fract_x
    _atom_site_fract_y
    _atom_site_fract_z
    _atom_site_occupancy
    N0      N    0.29103   0.55214   0.49824   1.000
    N1      N    0.55108   0.28123   0.18401   1.000
    N2      N    0.94947   0.21897   0.18399   1.000
    N3      N    0.71474   0.45210   0.31476   1.000
    N4      N    0.44887   0.71879   0.81590   1.000
    N5      N    0.94398   0.21479   0.99944   1.000
    N6      N    0.05048   0.78105   0.81600   1.000
    N7      N    0.05416   0.78522   0.00055   1.000
    N8      N    0.21379   0.95215   0.68528   1.000
    N9      N    0.44626   0.71478   0.00043   1.000
    N10     N    0.78619   0.04786   0.31472   1.000
    N11     N    0.70896   0.44787   0.50175   1.000
    N12     N    0.20901   0.94666   0.49830   1.000
    N13     N    0.79098   0.05100   0.50169   1.000
    N14     N    0.28523   0.54792   0.68524   1.000
    N15     N    0.55370   0.28522   0.99957   1.000
    Zr16    Zr   0.75001   0.25007   0.09290   1.000
    O17     O    0.68497   0.26005   0.12239   1.000
    O18     O    0.81523   0.24011   0.12237   1.000
    O19     O    0.68564   0.26147   0.06274   1.000
    O20     O    0.81376   0.23862   0.06269   1.000
    Zr21    Zr   0.74960   0.74949   0.65809   1.000
    O22     O    0.72244   0.62844   0.59554   1.000
    O23     O    0.62836   0.72835   0.72147   1.000
    O24     O    0.77705   0.87030   0.59548   1.000
    O25     O    0.87087   0.77107   0.72152   1.000
    Zr26    Zr   0.75033   0.24980   0.40710   1.000
    O27     O    0.76364   0.18445   0.43762   1.000
    O28     O    0.73880   0.31612   0.37727   1.000
    O29     O    0.76196   0.18362   0.37725   1.000
    O30     O    0.73677   0.31493   0.43764   1.000
    Zr31    Zr   0.24994   0.74994   0.90710   1.000
    O32     O    0.18473   0.75990   0.87761   1.000
    O33     O    0.18574   0.76139   0.93731   1.000
    O34     O    0.31432   0.73853   0.93726   1.000
    O35     O    0.31498   0.73996   0.87759   1.000
    Zr36    Zr   0.25036   0.25052   0.34191   1.000
    O37     O    0.37160   0.27166   0.27851   1.000
    O38     O    0.27753   0.37157   0.40446   1.000
    O39     O    0.22292   0.12913   0.40452   1.000
    O40     O    0.12909   0.22894   0.27848   1.000
    Zr41    Zr   0.24973   0.24999   0.84532   1.000
    O42     O    0.22579   0.13010   0.78117   1.000
    O43     O    0.27349   0.36992   0.78116   1.000
    O44     O    0.37172   0.27403   0.90719   1.000
    O45     O    0.12730   0.22595   0.90714   1.000
    Zr46    Zr   0.75021   0.75002   0.15468   1.000
    O47     O    0.72646   0.63009   0.21884   1.000
    O48     O    0.87220   0.77406   0.09285   1.000
    O49     O    0.77417   0.86992   0.21882   1.000
    O50     O    0.62823   0.72598   0.09281   1.000
    Zr51    Zr   0.24966   0.75020   0.59286   1.000
    O52     O    0.23803   0.81639   0.62272   1.000
    O53     O    0.26118   0.68390   0.62270   1.000
    O54     O    0.23635   0.81498   0.56235   1.000
    O55     O    0.26322   0.68507   0.56234   1.000
loop_
    _geom_bond_atom_site_label_1
    _geom_bond_atom_site_label_2
    _geom_bond_distance
    _geom_bond_site_symmetry_2
    _ccdc_geom_bond_type
    Zr16   O17       1.10888      .   S
    N1     O17       2.30089      .   S
    Zr16   O18       1.10873      .   S
    N2     O18       2.30129      .   S
    Zr16   O19       1.11615      .   S
    N15    O19       2.31511  1_556   S
    Zr16   O20       1.11335      .   S
    N5     O20       2.30617  1_556   S
    Zr21   O22       2.24993      .   S
    N11    O22       3.30960      .   S
    Zr21   O23       2.28120      .   S
    N4     O23       3.35154      .   S
    Zr21   O24       2.24971      .   S
    N13    O24       3.30985  1_545   S
    Zr21   O25       2.28137      .   S
    N6     O25       3.35097  1_455   S
    Zr26   O27       1.11657      .   S
    N13    O27       2.31567      .   S
    Zr26   O28       1.10887      .   S
    N3     O28       2.30129      .   S
    Zr26   O29       1.10909      .   S
    N10    O29       2.30166      .   S
    Zr26   O30       1.11613      .   S
    N11    O30       2.31486      .   S
    Zr31   O32       1.10903      .   S
    N6     O32       2.30119      .   S
    Zr31   O33       1.11685      .   S
    N7     O33       2.31642  1_554   S
    Zr31   O34       1.11615      .   S
    N9     O34       2.31512  1_554   S
    Zr31   O35       1.10936      .   S
    N4     O35       2.30234      .   S
    Zr36   O37       2.28168      .   S
    N1     O37       3.35304      .   S
    Zr36   O38       2.24989      .   S
    N0     O38       3.30946      .   S
    Zr36   O39       2.25385      .   S
    N12    O39       3.32229  1_565   S
    Zr36   O40       2.28145      .   S
    N2     O40       3.35117  1_655   S
    Zr41   O42       2.26706      .   S
    N8     O42       3.33324  1_565   S
    Zr41   O43       2.26640      .   S
    N14    O43       3.33246      .   S
    Zr41   O44       2.26051      .   S
    N15    O44       3.32661      .   S
    Zr41   O45       2.26493      .   S
    N5     O45       3.33834  1_655   S
    Zr46   O47       2.26645      .   S
    N3     O47       3.33246      .   S
    Zr46   O48       2.26144      .   S
    N7     O48       3.32803  1_455   S
    Zr46   O49       2.26697      .   S
    N10    O49       3.33346  1_545   S
    Zr46   O50       2.26044      .   S
    N9     O50       3.32652      .   S
    Zr51   O52       1.10940      .   S
    N8     O52       2.30216      .   S
    Zr51   O53       1.10915      .   S
    N14    O53       2.30171      .   S
    Zr51   O54       1.11200      .   S
    N12    O54       2.30260      .   S
    Zr51   O55       1.11587      .   S
    N0     O55       2.31448      .   S
