# CIF file generated by openbabel 2.4.90, see http://openbabel.sf.net
data_I
_chemical_name_common ''
_cell_length_a 11.804
_cell_length_b 11.438
_cell_length_c 27.327
_cell_angle_alpha 89.971
_cell_angle_beta 90.057
_cell_angle_gamma 82.266
_space_group_name_H-M_alt 'P 1'
_space_group_name_Hall 'P 1'
loop_
    _symmetry_equiv_pos_as_xyz
    x,y,z
loop_
    _atom_site_label
    _atom_site_type_symbol
    _atom_site_fract_x
    _atom_site_fract_y
    _atom_site_fract_z
    _atom_site_occupancy
    C0      C    0.75016   0.75008   0.15681   1.000
    C1      C    0.74956   0.74974   0.66217   1.000
    C2      C    0.25039   0.25028   0.33783   1.000
    C3      C    0.24978   0.24994   0.84319   1.000
    C4      C    0.13952   0.58493   0.84202   1.000
    C5      C    0.99607   0.60509   0.77378   1.000
    C6      C    0.96547   0.98232   0.79092   1.000
    C7      C    0.10576   0.95101   0.86013   1.000
    C8      C    0.43828   0.88424   0.94555   1.000
    C9      C    0.57464   0.86507   0.01705   1.000
    C10     C    0.45044   0.53932   0.05392   1.000
    C11     C    0.31831   0.57012   0.98165   1.000
    C12     C    0.35996   0.91487   0.84184   1.000
    C13     C    0.50297   0.89478   0.77359   1.000
    C14     C    0.53383   0.51756   0.79091   1.000
    C15     C    0.39385   0.54877   0.86008   1.000
    C16     C    0.06210   0.61554   0.94587   1.000
    C17     C    0.92611   0.63478   0.01736   1.000
    C18     C    0.05009   0.96087   0.05380   1.000
    C19     C    0.18179   0.93001   0.98161   1.000
    C20     C    0.59512   0.13085   0.34269   1.000
    C21     C    0.61695   0.98855   0.27248   1.000
    C22     C    0.98230   0.96855   0.28808   1.000
    C23     C    0.94969   0.10852   0.35858   1.000
    C24     C    0.87529   0.44457   0.44847   1.000
    C25     C    0.85337   0.57940   0.52182   1.000
    C26     C    0.53698   0.44710   0.55357   1.000
    C27     C    0.57005   0.31694   0.47963   1.000
    C28     C    0.90582   0.36883   0.34283   1.000
    C29     C    0.88398   0.51105   0.27250   1.000
    C30     C    0.51863   0.53181   0.28800   1.000
    C31     C    0.55123   0.39184   0.35866   1.000
    C32     C    0.62477   0.05503   0.44814   1.000
    C33     C    0.64634   0.91947   0.52129   1.000
    C34     C    0.96278   0.05116   0.55380   1.000
    C35     C    0.92999   0.18214   0.48003   1.000
    C36     C    0.40486   0.86917   0.65732   1.000
    C37     C    0.38301   0.01148   0.72750   1.000
    C38     C    0.01766   0.03145   0.71192   1.000
    C39     C    0.05030   0.89147   0.64142   1.000
    C40     C    0.12470   0.55544   0.55150   1.000
    C41     C    0.14660   0.42062   0.47818   1.000
    C42     C    0.46300   0.55290   0.44643   1.000
    C43     C    0.42994   0.68305   0.52037   1.000
    C44     C    0.09416   0.63119   0.65717   1.000
    C45     C    0.11598   0.48898   0.72750   1.000
    C46     C    0.48133   0.46820   0.71196   1.000
    C47     C    0.44875   0.60816   0.64135   1.000
    C48     C    0.37522   0.94499   0.55186   1.000
    C49     C    0.35364   0.08056   0.47872   1.000
    C50     C    0.03721   0.94884   0.44600   1.000
    C51     C    0.07001   0.81785   0.51997   1.000
    C52     C    0.86043   0.41508   0.15798   1.000
    C53     C    0.00388   0.39492   0.22622   1.000
    C54     C    0.03449   0.01770   0.20908   1.000
    C55     C    0.89420   0.04900   0.13987   1.000
    C56     C    0.56167   0.11576   0.05445   1.000
    C57     C    0.42532   0.13494   0.98295   1.000
    C58     C    0.54952   0.46069   0.94608   1.000
    C59     C    0.68165   0.42988   0.01835   1.000
    C60     C    0.63999   0.08515   0.15810   1.000
    C61     C    0.49698   0.10523   0.22641   1.000
    C62     C    0.46614   0.48246   0.20909   1.000
    C63     C    0.60612   0.45124   0.13990   1.000
    C64     C    0.93786   0.38447   0.05410   1.000
    C65     C    0.07384   0.36522   0.98264   1.000
    C66     C    0.94986   0.03913   0.94610   1.000
    C67     C    0.81816   0.07000   0.01839   1.000
    C68     C    0.24994   0.74994   0.90710   1.000
    C69     C    0.75033   0.24980   0.40710   1.000
    C70     C    0.24966   0.75020   0.59286   1.000
    C71     C    0.75001   0.25007   0.09290   1.000
    C72     C    0.07907   0.87696   0.83995   1.000
    C73     C    0.00147   0.89327   0.80159   1.000
    C74     C    0.97277   0.79535   0.77607   1.000
    C75     C    0.89479   0.81320   0.73170   1.000
    C76     C    0.01983   0.68288   0.79188   1.000
    C77     C    0.09772   0.67125   0.83026   1.000
    C78     C    0.37455   0.63431   0.99161   1.000
    C79     C    0.44871   0.61748   0.03106   1.000
    C80     C    0.52310   0.69988   0.04086   1.000
    C81     C    0.51872   0.79847   0.01012   1.000
    C82     C    0.44351   0.80991   0.97079   1.000
    C83     C    0.60936   0.67832   0.08202   1.000
    C84     C    0.42042   0.62286   0.83988   1.000
    C85     C    0.49787   0.60660   0.80153   1.000
    C86     C    0.52640   0.70452   0.77596   1.000
    C87     C    0.60433   0.68678   0.73163   1.000
    C88     C    0.47938   0.81696   0.79172   1.000
    C89     C    0.40169   0.82855   0.83011   1.000
    C90     C    0.12571   0.86574   0.99164   1.000
    C91     C    0.05173   0.88263   0.03108   1.000
    C92     C    0.97739   0.80021   0.04097   1.000
    C93     C    0.98190   0.70147   0.01034   1.000
    C94     C    0.05690   0.68998   0.97102   1.000
    C95     C    0.89103   0.82175   0.08204   1.000
    C96     C    0.87842   0.07940   0.33853   1.000
    C97     C    0.89549   0.00193   0.29932   1.000
    C98     C    0.80123   0.97061   0.27384   1.000
    C99     C    0.81890   0.89292   0.22860   1.000
    C100    C    0.69176   0.01433   0.29060   1.000
    C101    C    0.67926   0.09167   0.32994   1.000
    C102    C    0.63164   0.37437   0.49100   1.000
    C103    C    0.61353   0.44763   0.53145   1.000
    C104    C    0.69263   0.52389   0.54316   1.000
    C105    C    0.78927   0.52224   0.51329   1.000
    C106    C    0.80221   0.44781   0.47300   1.000
    C107    C    0.67056   0.60994   0.58531   1.000
    C108    C    0.62251   0.42073   0.33858   1.000
    C109    C    0.60544   0.49820   0.29933   1.000
    C110    C    0.69964   0.52934   0.27384   1.000
    C111    C    0.68171   0.60709   0.22865   1.000
    C112    C    0.80916   0.48542   0.29063   1.000
    C113    C    0.82168   0.40809   0.33002   1.000
    C114    C    0.86838   0.12453   0.49124   1.000
    C115    C    0.88632   0.05079   0.53155   1.000
    C116    C    0.80718   0.97442   0.54299   1.000
    C117    C    0.71060   0.97654   0.51296   1.000
    C118    C    0.69783   0.05142   0.47277   1.000
    C119    C    0.82888   0.88798   0.58509   1.000
    C120    C    0.12155   0.92060   0.66147   1.000
    C121    C    0.10448   0.99806   0.70068   1.000
    C122    C    0.19874   0.02941   0.72616   1.000
    C123    C    0.18106   0.10711   0.77133   1.000
    C124    C    0.30821   0.98568   0.70940   1.000
    C125    C    0.32072   0.90834   0.67006   1.000
    C126    C    0.36835   0.62564   0.50894   1.000
    C127    C    0.38645   0.55237   0.46855   1.000
    C128    C    0.30734   0.47612   0.45684   1.000
    C129    C    0.21071   0.47778   0.48671   1.000
    C130    C    0.19777   0.55220   0.52700   1.000
    C131    C    0.32940   0.39007   0.41469   1.000
    C132    C    0.37746   0.57928   0.66142   1.000
    C133    C    0.39453   0.50182   0.70068   1.000
    C134    C    0.30031   0.47068   0.72616   1.000
    C135    C    0.31824   0.39292   0.77135   1.000
    C136    C    0.19080   0.51462   0.70938   1.000
    C137    C    0.17829   0.59194   0.66998   1.000
    C138    C    0.13161   0.87547   0.50876   1.000
    C139    C    0.11367   0.94921   0.46845   1.000
    C140    C    0.19281   0.02559   0.45701   1.000
    C141    C    0.28938   0.00000   0.48705   1.000
    C142    C    0.30216   0.94859   0.52723   1.000
    C143    C    0.17110   0.11203   0.41491   1.000
    C144    C    0.92088   0.12305   0.16005   1.000
    C145    C    0.99849   0.10675   0.19841   1.000
    C146    C    0.02718   0.20466   0.22393   1.000
    C147    C    0.10516   0.18682   0.26830   1.000
    C148    C    0.98012   0.31713   0.20812   1.000
    C149    C    0.90223   0.32876   0.16974   1.000
    C150    C    0.62540   0.36570   0.00839   1.000
    C151    C    0.55124   0.38252   0.96894   1.000
    C152    C    0.47685   0.30013   0.95914   1.000
    C153    C    0.48123   0.20153   0.98988   1.000
    C154    C    0.55645   0.19010   0.02921   1.000
    C155    C    0.39058   0.32169   0.91798   1.000
    C156    C    0.57954   0.37715   0.16013   1.000
    C157    C    0.50209   0.39341   0.19848   1.000
    C158    C    0.47356   0.29549   0.22404   1.000
    C159    C    0.39562   0.31324   0.26837   1.000
    C160    C    0.52058   0.18306   0.20828   1.000
    C161    C    0.59827   0.17146   0.16900   1.000
    C162    C    0.87425   0.13426   0.00836   1.000
    C163    C    0.94822   0.11738   0.96892   1.000
    C164    C    0.02256   0.19981   0.95903   1.000
    C165    C    0.00000   0.29854   0.98966   1.000
    C166    C    0.94305   0.31003   0.02899   1.000
    C167    C    0.10892   0.17827   0.91796   1.000
    C168    C    0.37231   0.72901   0.96173   1.000
    C169    C    0.12714   0.76740   0.85340   1.000
    C170    C    0.12793   0.77096   0.96184   1.000
    C171    C    0.37238   0.73239   0.85338   1.000
    C172    C    0.72460   0.37472   0.46210   1.000
    C173    C    0.77166   0.12421   0.35309   1.000
    C174    C    0.77556   0.12454   0.46210   1.000
    C175    C    0.72929   0.37570   0.35316   1.000
    C176    C    0.27539   0.62529   0.53790   1.000
    C177    C    0.22833   0.87581   0.64691   1.000
    C178    C    0.22444   0.87547   0.53790   1.000
    C179    C    0.27069   0.62430   0.64684   1.000
    C180    C    0.62764   0.27099   0.03827   1.000
    C181    C    0.87281   0.23261   0.14650   1.000
    C182    C    0.87203   0.22905   0.03817   1.000
    C183    C    0.62757   0.26762   0.14662   1.000
    C184    C    0.88148   0.71706   0.70845   1.000
    C185    C    0.85178   0.91505   0.72083   1.000
    C186    C    0.62424   0.77069   0.10624   1.000
    C187    C    0.65760   0.57464   0.08748   1.000
    C188    C    0.61721   0.78290   0.70824   1.000
    C189    C    0.64781   0.58502   0.72092   1.000
    C190    C    0.87609   0.72937   0.10627   1.000
    C191    C    0.84267   0.92539   0.08742   1.000
    C192    C    0.72620   0.88518   0.20393   1.000
    C193    C    0.91689   0.84517   0.21870   1.000
    C194    C    0.75925   0.62113   0.61079   1.000
    C195    C    0.57036   0.66128   0.58982   1.000
    C196    C    0.77427   0.61484   0.20389   1.000
    C197    C    0.58364   0.65487   0.21873   1.000
    C198    C    0.74012   0.87770   0.61061   1.000
    C199    C    0.92869   0.83557   0.58961   1.000
    C200    C    0.27375   0.11482   0.79608   1.000
    C201    C    0.08306   0.15483   0.78128   1.000
    C202    C    0.24071   0.37888   0.38921   1.000
    C203    C    0.42960   0.33873   0.41018   1.000
    C204    C    0.22568   0.38519   0.79611   1.000
    C205    C    0.41631   0.34515   0.78127   1.000
    C206    C    0.25986   0.12230   0.38939   1.000
    C207    C    0.07129   0.16443   0.41039   1.000
    C208    C    0.11847   0.28296   0.29155   1.000
    C209    C    0.14816   0.08496   0.27917   1.000
    C210    C    0.37571   0.22932   0.89376   1.000
    C211    C    0.34235   0.42537   0.91252   1.000
    C212    C    0.38274   0.21712   0.29176   1.000
    C213    C    0.35213   0.41500   0.27908   1.000
    C214    C    0.12385   0.27065   0.89373   1.000
    C215    C    0.15727   0.07462   0.91258   1.000
    O216    O    0.84620   0.10213   0.01338   1.000
    O217    O    0.87314   0.18166   0.02327   1.000
    O218    O    0.91124   0.12582   0.98864   1.000
    O219    O    0.65353   0.39779   0.01337   1.000
    O220    O    0.62652   0.31834   0.02333   1.000
    O221    O    0.58832   0.37411   0.98867   1.000
    O222    O    0.54668   0.83177   0.01359   1.000
    O223    O    0.52091   0.74917   0.02549   1.000
    O224    O    0.48111   0.80419   0.99046   1.000
    O225    O    0.95400   0.66813   0.01385   1.000
    O226    O    0.97964   0.75084   0.02566   1.000
    O227    O    0.01940   0.69572   0.99068   1.000
    O228    O    0.90754   0.26954   0.03358   1.000
    O229    O    0.94046   0.34725   0.04155   1.000
    O230    O    0.97153   0.30428   0.00933   1.000
    O231    O    0.59204   0.23054   0.03374   1.000
    O232    O    0.55906   0.15293   0.04183   1.000
    O233    O    0.51884   0.19581   0.00955   1.000
    O234    O    0.48591   0.65868   0.03596   1.000
    O235    O    0.44958   0.57840   0.04249   1.000
    O236    O    0.41163   0.62589   0.01134   1.000
    O237    O    0.01456   0.84142   0.03603   1.000
    O238    O    0.05091   0.92175   0.04244   1.000
    O239    O    0.08872   0.87419   0.01136   1.000
    O240    O    0.81102   0.23956   0.06554   1.000
    O241    O    0.68883   0.26053   0.06559   1.000
    O242    O    0.56623   0.68910   0.06144   1.000
    O243    O    0.93421   0.81098   0.06151   1.000
    O244    O    0.63348   0.62648   0.08475   1.000
    O245    O    0.61680   0.72450   0.09413   1.000
    O246    O    0.86685   0.87357   0.08473   1.000
    O247    O    0.88356   0.77556   0.09416   1.000
    O248    O    0.81141   0.24134   0.11970   1.000
    O249    O    0.68879   0.25884   0.11976   1.000
    O250    O    0.68720   0.76038   0.13153   1.000
    O251    O    0.81313   0.73972   0.13154   1.000
    O252    O    0.90754   0.08603   0.14996   1.000
    O253    O    0.59283   0.41420   0.15002   1.000
    O254    O    0.89685   0.17783   0.15328   1.000
    O255    O    0.88752   0.28069   0.15812   1.000
    O256    O    0.60356   0.32239   0.15338   1.000
    O257    O    0.61292   0.21954   0.15781   1.000
    O258    O    0.76221   0.68246   0.18035   1.000
    O259    O    0.73818   0.81763   0.18037   1.000
    O260    O    0.88133   0.37192   0.16386   1.000
    O261    O    0.61913   0.12830   0.16355   1.000
    O262    O    0.95969   0.11490   0.17923   1.000
    O263    O    0.54082   0.38528   0.17931   1.000
    O264    O    0.55942   0.17726   0.18864   1.000
    O265    O    0.94118   0.32295   0.18893   1.000
    O266    O    0.01649   0.06222   0.20375   1.000
    O267    O    0.01283   0.15570   0.21117   1.000
    O268    O    0.48412   0.43794   0.20379   1.000
    O269    O    0.48782   0.34445   0.21126   1.000
    O270    O    0.72799   0.61096   0.21627   1.000
    O271    O    0.77255   0.88905   0.21627   1.000
    O272    O    0.00365   0.26089   0.21603   1.000
    O273    O    0.99200   0.35602   0.21717   1.000
    O274    O    0.49707   0.23928   0.21616   1.000
    O275    O    0.50878   0.14415   0.21735   1.000
    O276    O    0.86789   0.86904   0.22365   1.000
    O277    O    0.63267   0.63098   0.22369   1.000
    O278    O    0.06617   0.19574   0.24612   1.000
    O279    O    0.43459   0.30437   0.24621   1.000
    O280    O    0.81006   0.93177   0.25122   1.000
    O281    O    0.69068   0.56821   0.25125   1.000
    O282    O    0.12666   0.13589   0.27374   1.000
    O283    O    0.11181   0.23489   0.27993   1.000
    O284    O    0.37388   0.36412   0.27373   1.000
    O285    O    0.38918   0.26518   0.28007   1.000
    O286    O    0.65435   0.00144   0.28154   1.000
    O287    O    0.84657   0.49824   0.28157   1.000
    O288    O    0.74649   0.99247   0.28222   1.000
    O289    O    0.84836   0.98627   0.28658   1.000
    O290    O    0.75440   0.50738   0.28224   1.000
    O291    O    0.65254   0.51377   0.28659   1.000
    O292    O    0.56203   0.51500   0.29367   1.000
    O293    O    0.93889   0.98524   0.29370   1.000
    O294    O    0.68551   0.05300   0.31027   1.000
    O295    O    0.81542   0.44675   0.31033   1.000
    O296    O    0.18443   0.26662   0.31469   1.000
    O297    O    0.31657   0.23370   0.31480   1.000
    O298    O    0.88695   0.04066   0.31893   1.000
    O299    O    0.61397   0.45946   0.31896   1.000
    O300    O    0.63719   0.11126   0.33632   1.000
    O301    O    0.72546   0.10794   0.34152   1.000
    O302    O    0.86375   0.38846   0.33643   1.000
    O303    O    0.77549   0.39189   0.34159   1.000
    O304    O    0.24555   0.31458   0.36352   1.000
    O305    O    0.25513   0.18629   0.36361   1.000
    O306    O    0.82504   0.10180   0.34581   1.000
    O307    O    0.91406   0.09396   0.34856   1.000
    O308    O    0.67590   0.39821   0.34587   1.000
    O309    O    0.58687   0.40628   0.34862   1.000
    O310    O    0.76099   0.18701   0.38010   1.000
    O311    O    0.73981   0.31275   0.38013   1.000
    O312    O    0.28505   0.38448   0.40195   1.000
    O313    O    0.21548   0.11716   0.40215   1.000
    O314    O    0.76294   0.18717   0.43460   1.000
    O315    O    0.73746   0.31226   0.43460   1.000
    O316    O    0.37950   0.36440   0.41244   1.000
    O317    O    0.12119   0.13823   0.41265   1.000
    O318    O    0.31837   0.43309   0.43577   1.000
    O319    O    0.18195   0.06881   0.43596   1.000
    O320    O    0.07544   0.94902   0.45723   1.000
    O321    O    0.42473   0.55263   0.45749   1.000
    O322    O    0.66130   0.05323   0.46046   1.000
    O323    O    0.83875   0.44619   0.46074   1.000
    O324    O    0.34690   0.51424   0.46270   1.000
    O325    O    0.25902   0.47695   0.47178   1.000
    O326    O    0.15324   0.98740   0.46273   1.000
    O327    O    0.24110   0.01279   0.47203   1.000
    O328    O    0.73669   0.08798   0.46744   1.000
    O329    O    0.82197   0.12453   0.47667   1.000
    O330    O    0.76341   0.41127   0.46755   1.000
    O331    O    0.67812   0.37454   0.47655   1.000
    O332    O    0.12264   0.91234   0.48861   1.000
    O333    O    0.37740   0.58900   0.48875   1.000
    O334    O    0.70422   0.01398   0.49287   1.000
    O335    O    0.79574   0.48502   0.49315   1.000
    O336    O    0.17865   0.44920   0.48245   1.000
    O337    O    0.32151   0.04028   0.48289   1.000
    O338    O    0.60085   0.34565   0.48532   1.000
    O339    O    0.89919   0.15333   0.48564   1.000
    O340    O    0.20424   0.51499   0.50686   1.000
    O341    O    0.29577   0.97430   0.50714   1.000
    O342    O    0.62259   0.41100   0.51123   1.000
    O343    O    0.87735   0.08766   0.51140   1.000
    O344    O    0.10081   0.84666   0.51437   1.000
    O345    O    0.17803   0.87547   0.52333   1.000
    O346    O    0.39915   0.65435   0.51466   1.000
    O347    O    0.32187   0.62546   0.52342   1.000
    O348    O    0.67847   0.94801   0.51713   1.000
    O349    O    0.75889   0.97548   0.52798   1.000
    O350    O    0.82132   0.55082   0.51756   1.000
    O351    O    0.74095   0.52307   0.52823   1.000
    O352    O    0.23658   0.58874   0.53245   1.000
    O353    O    0.16124   0.55382   0.53925   1.000
    O354    O    0.26330   0.91203   0.53257   1.000
    O355    O    0.33869   0.94679   0.53955   1.000
    O356    O    0.65308   0.48576   0.53731   1.000
    O357    O    0.57525   0.44737   0.54251   1.000
    O358    O    0.84675   0.01260   0.53727   1.000
    O359    O    0.92455   0.05097   0.54268   1.000
    O360    O    0.26253   0.68775   0.56538   1.000
    O361    O    0.23705   0.81284   0.56538   1.000
    O362    O    0.81803   0.93120   0.56404   1.000
    O363    O    0.68160   0.56692   0.56424   1.000
    O364    O    0.87879   0.86178   0.58735   1.000
    O365    O    0.78450   0.88284   0.59785   1.000
    O366    O    0.62046   0.63561   0.58757   1.000
    O367    O    0.71491   0.61554   0.59805   1.000
    O368    O    0.26018   0.68725   0.61985   1.000
    O369    O    0.23899   0.81301   0.61989   1.000
    O370    O    0.74484   0.81372   0.63639   1.000
    O371    O    0.75441   0.68544   0.63648   1.000
    O372    O    0.41310   0.59372   0.65139   1.000
    O373    O    0.08593   0.90603   0.65145   1.000
    O374    O    0.32407   0.60179   0.65413   1.000
    O375    O    0.22449   0.60812   0.65841   1.000
    O376    O    0.17494   0.89820   0.65419   1.000
    O377    O    0.27452   0.89208   0.65849   1.000
    O378    O    0.13622   0.61157   0.66358   1.000
    O379    O    0.36279   0.88876   0.66369   1.000
    O380    O    0.38600   0.54055   0.68105   1.000
    O381    O    0.11302   0.95933   0.68108   1.000
    O382    O    0.68339   0.76632   0.68521   1.000
    O383    O    0.81552   0.73340   0.68531   1.000
    O384    O    0.18454   0.55328   0.68968   1.000
    O385    O    0.31446   0.94701   0.68973   1.000
    O386    O    0.43793   0.48501   0.70632   1.000
    O387    O    0.34742   0.48625   0.71342   1.000
    O388    O    0.06107   0.01476   0.70630   1.000
    O389    O    0.15161   0.01373   0.71342   1.000
    O390    O    0.61077   0.73484   0.71994   1.000
    O391    O    0.88814   0.76513   0.72008   1.000
    O392    O    0.24556   0.49265   0.71777   1.000
    O393    O    0.15339   0.50180   0.71844   1.000
    O394    O    0.25347   0.00755   0.71778   1.000
    O395    O    0.34561   0.99858   0.71845   1.000
    O396    O    0.87329   0.86412   0.72627   1.000
    O397    O    0.62607   0.63590   0.72628   1.000
    O398    O    0.30927   0.43180   0.74876   1.000
    O399    O    0.18990   0.06826   0.74875   1.000
    O400    O    0.56536   0.69565   0.75380   1.000
    O401    O    0.93378   0.80428   0.75389   1.000
    O402    O    0.13206   0.13097   0.77631   1.000
    O403    O    0.22740   0.11097   0.78371   1.000
    O404    O    0.36727   0.36903   0.77631   1.000
    O405    O    0.27196   0.38905   0.78373   1.000
    O406    O    0.49117   0.85587   0.78266   1.000
    O407    O    0.00795   0.64399   0.78283   1.000
    O408    O    0.50289   0.76074   0.78384   1.000
    O409    O    0.51214   0.65556   0.78875   1.000
    O410    O    0.99630   0.73912   0.78398   1.000
    O411    O    0.98712   0.84431   0.78883   1.000
    O412    O    0.51585   0.56208   0.79622   1.000
    O413    O    0.98347   0.93779   0.79626   1.000
    O414    O    0.44053   0.82275   0.81092   1.000
    O415    O    0.05877   0.67707   0.81107   1.000
    O416    O    0.26177   0.18238   0.81964   1.000
    O417    O    0.23773   0.31756   0.81965   1.000
    O418    O    0.45915   0.61473   0.82071   1.000
    O419    O    0.04027   0.88511   0.82077   1.000
    O420    O    0.38083   0.87171   0.83598   1.000
    O421    O    0.38704   0.78047   0.84175   1.000
    O422    O    0.11862   0.62809   0.83614   1.000
    O423    O    0.11243   0.71932   0.84183   1.000
    O424    O    0.39640   0.67763   0.84663   1.000
    O425    O    0.40713   0.58581   0.84998   1.000
    O426    O    0.10311   0.82218   0.84668   1.000
    O427    O    0.09241   0.91399   0.85004   1.000
    O428    O    0.18682   0.26030   0.86846   1.000
    O429    O    0.31275   0.23963   0.86848   1.000
    O430    O    0.31116   0.74117   0.88024   1.000
    O431    O    0.18854   0.75867   0.88025   1.000
    O432    O    0.11638   0.22446   0.90585   1.000
    O433    O    0.38315   0.27551   0.90587   1.000
    O434    O    0.31113   0.73948   0.93442   1.000
    O435    O    0.18893   0.76045   0.93447   1.000
    O436    O    0.36646   0.37353   0.91525   1.000
    O437    O    0.13310   0.12645   0.91527   1.000
    O438    O    0.06574   0.18904   0.93850   1.000
    O439    O    0.43372   0.31091   0.93856   1.000
    O440    O    0.44090   0.84707   0.95817   1.000
    O441    O    0.05950   0.65276   0.95845   1.000
    O442    O    0.55038   0.42161   0.95751   1.000
    O443    O    0.94904   0.07826   0.95751   1.000
    O444    O    0.98539   0.15859   0.96398   1.000
    O445    O    0.01128   0.24917   0.97435   1.000
    O446    O    0.51404   0.34133   0.96404   1.000
    O447    O    0.47904   0.25083   0.97451   1.000
    O448    O    0.40791   0.76946   0.96626   1.000
    O449    O    0.37343   0.68166   0.97667   1.000
    O450    O    0.09241   0.73047   0.96643   1.000
    O451    O    0.12682   0.81835   0.97674   1.000
    O452    O    0.15375   0.89787   0.98663   1.000
    O453    O    0.34643   0.60222   0.98663   1.000
    O454    O    0.03692   0.33188   0.98615   1.000
    O455    O    0.45327   0.16824   0.98642   1.000
loop_
    _geom_bond_atom_site_label_1
    _geom_bond_atom_site_label_2
    _geom_bond_distance
    _geom_bond_site_symmetry_2
    _ccdc_geom_bond_type
    C162   O216      0.54426      .   S
    C67    O216      0.54426      .   S
    C162   O217      0.67694      .   S
    C182   O217      0.67694      .   S
    C162   O218      0.69248  1_554   S
    C163   O218      0.69248      .   S
    C150   O219      0.54425      .   S
    C59    O219      0.54425      .   S
    C150   O220      0.67680      .   S
    C180   O220      0.67680      .   S
    C150   O221      0.69250  1_554   S
    C151   O221      0.69250      .   S
    C81    O222      0.54473      .   S
    C9     O222      0.54473      .   S
    C81    O223      0.70061      .   S
    C80    O223      0.70061      .   S
    C81    O224      0.69410  1_554   S
    C82    O224      0.69410      .   S
    C93    O225      0.54489      .   S
    C17    O225      0.54489      .   S
    C93    O226      0.70066      .   S
    C92    O226      0.70066      .   S
    C93    O227      0.69397  1_654   S
    C94    O227      0.69397      .   S
    C166   O228      0.67693      .   S
    C182   O228      0.67693      .   S
    C166   O229      0.54457      .   S
    C64    O229      0.54457      .   S
    C166   O230      0.63287      .   S
    C165   O230      0.63287  1_456   S
    C154   O231      0.67689      .   S
    C180   O231      0.67689      .   S
    C154   O232      0.54491      .   S
    C56    O232      0.54491      .   S
    C154   O233      0.69411      .   S
    C153   O233      0.69411  1_556   S
    C79    O234      0.69883      .   S
    C80    O234      0.69883      .   S
    C79    O235      0.54416      .   S
    C10    O235      0.54416      .   S
    C79    O236      0.69250      .   S
    C78    O236      0.69250  1_556   S
    C91    O237      0.69905      .   S
    C92    O237      0.69905  1_655   S
    C91    O238      0.54378      .   S
    C18    O238      0.54378      .   S
    C91    O239      0.69249      .   S
    C90    O239      0.69249  1_556   S
    C182   O240      1.03446      .   S
    C71    O240      1.03446      .   S
    C180   O241      1.03378      .   S
    C71    O241      1.03378      .   S
    C80    O242      0.75707      .   S
    C83    O242      0.75707      .   S
    C92    O243      0.75736      .   S
    C95    O243      0.75736      .   S
    C83    O244      0.62664      .   S
    C187   O244      0.62664      .   S
    C83    O245      0.63944      .   S
    C186   O245      0.63944      .   S
    C95    O246      0.62669      .   S
    C191   O246      0.62669      .   S
    C95    O247      0.63947      .   S
    C190   O247      0.63947      .   S
    C71    O248      1.02517      .   S
    C181   O248      1.02517      .   S
    C71    O249      1.02598      .   S
    C183   O249      1.02598      .   S
    C186   O250      1.00944      .   S
    C0     O250      1.00944      .   S
    C190   O251      1.01032      .   S
    C0     O251      1.01032      .   S
    C55    O252      0.54603      .   S
    C144   O252      0.54603      .   S
    C63    O253      0.54626      .   S
    C156   O253      0.54626      .   S
    C181   O254      0.67773      .   S
    C144   O254      0.67773      .   S
    C181   O255      0.67759      .   S
    C149   O255      0.67759      .   S
    C183   O256      0.67771      .   S
    C156   O256      0.67771      .   S
    C183   O257      0.67185      .   S
    C161   O257      0.67185      .   S
    C0     O258      1.00095      .   S
    C196   O258      1.00095      .   S
    C0     O259      1.00141      .   S
    C192   O259      1.00141      .   S
    C52    O260      0.54537      .   S
    C149   O260      0.54537      .   S
    C60    O261      0.54215      .   S
    C161   O261      0.54215      .   S
    C144   O262      0.69368      .   S
    C145   O262      0.69368      .   S
    C156   O263      0.69372      .   S
    C157   O263      0.69372      .   S
    C161   O264      0.70358      .   S
    C160   O264      0.70358      .   S
    C149   O265      0.69428      .   S
    C148   O265      0.69428      .   S
    C145   O266      0.54451  1_655   S
    C54    O266      0.54451      .   S
    C145   O267      0.69959  1_655   S
    C146   O267      0.69959      .   S
    C157   O268      0.54443      .   S
    C62    O268      0.54443      .   S
    C157   O269      0.69946      .   S
    C158   O269      0.69946      .   S
    C196   O270      0.64940      .   S
    C111   O270      0.64940      .   S
    C192   O271      0.64893      .   S
    C99    O271      0.64893      .   S
    C148   O272      0.69941  1_655   S
    C146   O272      0.69941      .   S
    C148   O273      0.54369      .   S
    C53    O273      0.54369  1_455   S
    C160   O274      0.69934      .   S
    C158   O274      0.69934      .   S
    C160   O275      0.54359      .   S
    C61    O275      0.54359      .   S
    C193   O276      0.62050      .   S
    C99    O276      0.62050      .   S
    C197   O277      0.62070      .   S
    C111   O277      0.62070      .   S
    C146   O278      0.75928      .   S
    C147   O278      0.75928      .   S
    C158   O279      0.75949      .   S
    C159   O279      0.75949      .   S
    C99    O280      0.76048      .   S
    C98    O280      0.76048      .   S
    C111   O281      0.75966      .   S
    C110   O281      0.75966      .   S
    C147   O282      0.62117      .   S
    C209   O282      0.62117      .   S
    C147   O283      0.64896      .   S
    C208   O283      0.64896      .   S
    C159   O284      0.62121      .   S
    C213   O284      0.62121      .   S
    C159   O285      0.64901      .   S
    C212   O285      0.64901      .   S
    C21    O286      0.54344  1_565   S
    C100   O286      0.54344      .   S
    C29    O287      0.54355      .   S
    C112   O287      0.54355      .   S
    C98    O288      0.69948      .   S
    C100   O288      0.69948  1_545   S
    C98    O289      0.69948      .   S
    C97    O289      0.69948  1_545   S
    C110   O290      0.69961      .   S
    C112   O290      0.69961      .   S
    C110   O291      0.69939      .   S
    C109   O291      0.69939      .   S
    C30    O292      0.54472      .   S
    C109   O292      0.54472      .   S
    C22    O293      0.54448      .   S
    C97    O293      0.54448  1_545   S
    C100   O294      0.69393      .   S
    C101   O294      0.69393      .   S
    C112   O295      0.69397      .   S
    C113   O295      0.69397      .   S
    C208   O296      1.00037      .   S
    C2     O296      1.00037      .   S
    C212   O297      1.00182      .   S
    C2     O297      1.00182      .   S
    C97    O298      0.69409      .   S
    C96    O298      0.69409      .   S
    C109   O299      0.69404      .   S
    C108   O299      0.69404      .   S
    C101   O300      0.54538      .   S
    C20    O300      0.54538      .   S
    C101   O301      0.67756      .   S
    C173   O301      0.67756      .   S
    C113   O302      0.54535      .   S
    C28    O302      0.54535      .   S
    C113   O303      0.67757      .   S
    C175   O303      0.67757      .   S
    C2     O304      1.01308      .   S
    C202   O304      1.01308      .   S
    C2     O305      1.01167      .   S
    C206   O305      1.01167      .   S
    C96    O306      0.67762      .   S
    C173   O306      0.67762      .   S
    C96    O307      0.54623      .   S
    C23    O307      0.54623      .   S
    C108   O308      0.67763      .   S
    C175   O308      0.67763      .   S
    C108   O309      0.54628      .   S
    C31    O309      0.54628      .   S
    C173   O310      1.02605      .   S
    C69    O310      1.02605      .   S
    C175   O311      1.02578      .   S
    C69    O311      1.02578      .   S
    C202   O312      0.63873      .   S
    C131   O312      0.63873      .   S
    C206   O313      0.63885      .   S
    C143   O313      0.63885      .   S
    C69    O314      1.03473      .   S
    C174   O314      1.03473      .   S
    C69    O315      1.03427      .   S
    C172   O315      1.03427      .   S
    C203   O316      0.62697      .   S
    C131   O316      0.62697      .   S
    C207   O317      0.62693      .   S
    C143   O317      0.62693      .   S
    C131   O318      0.75761      .   S
    C128   O318      0.75761      .   S
    C143   O319      0.75776      .   S
    C140   O319      0.75776      .   S
    C50    O320      0.54562      .   S
    C139   O320      0.54562      .   S
    C42    O321      0.54416      .   S
    C127   O321      0.54416      .   S
    C32    O322      0.54492      .   S
    C118   O322      0.54492      .   S
    C24    O323      0.54482      .   S
    C106   O323      0.54482      .   S
    C128   O324      0.69894      .   S
    C127   O324      0.69894      .   S
    C128   O325      0.70068      .   S
    C129   O325      0.70068      .   S
    C140   O326      0.69886  1_545   S
    C139   O326      0.69886      .   S
    C140   O327      0.70126      .   S
    C141   O327      0.70126      .   S
    C174   O328      0.67694      .   S
    C118   O328      0.67694      .   S
    C174   O329      0.67692      .   S
    C114   O329      0.67692      .   S
    C172   O330      0.67692      .   S
    C106   O330      0.67692      .   S
    C172   O331      0.67651      .   S
    C102   O331      0.67651      .   S
    C139   O332      0.69285      .   S
    C138   O332      0.69285      .   S
    C127   O333      0.69270      .   S
    C126   O333      0.69270      .   S
    C118   O334      0.69399      .   S
    C117   O334      0.69399  1_565   S
    C106   O335      0.69399      .   S
    C105   O335      0.69399      .   S
    C41    O336      0.54482      .   S
    C129   O336      0.54482      .   S
    C49    O337      0.64504      .   S
    C141   O337      0.64504      .   S
    C27    O338      0.54425      .   S
    C102   O338      0.54425      .   S
    C35    O339      0.54456      .   S
    C114   O339      0.54456      .   S
    C129   O340      0.69398      .   S
    C130   O340      0.69398      .   S
    C141   O341      0.62234  1_545   S
    C142   O341      0.62234      .   S
    C102   O342      0.69336      .   S
    C103   O342      0.69336      .   S
    C114   O343      0.69284      .   S
    C115   O343      0.69284      .   S
    C138   O344      0.54456      .   S
    C51    O344      0.54456      .   S
    C138   O345      0.67692      .   S
    C178   O345      0.67692      .   S
    C126   O346      0.54448      .   S
    C43    O346      0.54448      .   S
    C126   O347      0.67698      .   S
    C176   O347      0.67698      .   S
    C117   O348      0.54470      .   S
    C33    O348      0.54470      .   S
    C117   O349      0.70075      .   S
    C116   O349      0.70075      .   S
    C105   O350      0.54481      .   S
    C25    O350      0.54481      .   S
    C105   O351      0.70070      .   S
    C104   O351      0.70070      .   S
    C130   O352      0.67692      .   S
    C176   O352      0.67692      .   S
    C130   O353      0.54456      .   S
    C40    O353      0.54456      .   S
    C142   O354      0.67695      .   S
    C178   O354      0.67695      .   S
    C142   O355      0.54490      .   S
    C48    O355      0.54490      .   S
    C103   O356      0.69894      .   S
    C104   O356      0.69894      .   S
    C103   O357      0.54417      .   S
    C26    O357      0.54417      .   S
    C115   O358      0.69885      .   S
    C116   O358      0.69885  1_565   S
    C115   O359      0.54409      .   S
    C34    O359      0.54409      .   S
    C176   O360      1.03387      .   S
    C70    O360      1.03387      .   S
    C178   O361      1.03433      .   S
    C70    O361      1.03433      .   S
    C116   O362      0.75776      .   S
    C119   O362      0.75776      .   S
    C104   O363      0.75762      .   S
    C107   O363      0.75762      .   S
    C119   O364      0.62693      .   S
    C199   O364      0.62693      .   S
    C119   O365      0.63887      .   S
    C198   O365      0.63887      .   S
    C107   O366      0.62697      .   S
    C195   O366      0.62697      .   S
    C107   O367      0.63872      .   S
    C194   O367      0.63872      .   S
    C70    O368      1.02618      .   S
    C179   O368      1.02618      .   S
    C70    O369      1.02647      .   S
    C177   O369      1.02647      .   S
    C198   O370      1.01162      .   S
    C1     O370      1.01162      .   S
    C194   O371      1.01309      .   S
    C1     O371      1.01309      .   S
    C47    O372      0.54622      .   S
    C132   O372      0.54622      .   S
    C39    O373      0.54621      .   S
    C120   O373      0.54621      .   S
    C179   O374      0.67759      .   S
    C132   O374      0.67759      .   S
    C179   O375      0.67755      .   S
    C137   O375      0.67755      .   S
    C177   O376      0.67761      .   S
    C120   O376      0.67761      .   S
    C177   O377      0.67752      .   S
    C125   O377      0.67752      .   S
    C44    O378      0.54533      .   S
    C137   O378      0.54533      .   S
    C36    O379      0.54534      .   S
    C125   O379      0.54534      .   S
    C132   O380      0.69411      .   S
    C133   O380      0.69411      .   S
    C120   O381      0.69410      .   S
    C121   O381      0.69410      .   S
    C1     O382      1.00181      .   S
    C188   O382      1.00181      .   S
    C1     O383      1.00038      .   S
    C184   O383      1.00038      .   S
    C137   O384      0.69404      .   S
    C136   O384      0.69404      .   S
    C125   O385      0.69393      .   S
    C124   O385      0.69393      .   S
    C133   O386      0.54452      .   S
    C46    O386      0.54452      .   S
    C133   O387      0.69937      .   S
    C134   O387      0.69937      .   S
    C121   O388      0.54450  1_565   S
    C38    O388      0.54450      .   S
    C121   O389      0.69951  1_565   S
    C122   O389      0.69951      .   S
    C188   O390      0.64901      .   S
    C87    O390      0.64901      .   S
    C184   O391      0.64896      .   S
    C75    O391      0.64896      .   S
    C136   O392      0.69957      .   S
    C134   O392      0.69957      .   S
    C136   O393      0.54350      .   S
    C45    O393      0.54350      .   S
    C124   O394      0.69951  1_565   S
    C122   O394      0.69951      .   S
    C124   O395      0.54332      .   S
    C37    O395      0.54332  1_545   S
    C185   O396      0.62118      .   S
    C75    O396      0.62118      .   S
    C189   O397      0.62120      .   S
    C87    O397      0.62120      .   S
    C134   O398      0.75970      .   S
    C135   O398      0.75970      .   S
    C122   O399      0.75974      .   S
    C123   O399      0.75974      .   S
    C87    O400      0.75947      .   S
    C86    O400      0.75947      .   S
    C75    O401      0.75928      .   S
    C74    O401      0.75928      .   S
    C123   O402      0.62062      .   S
    C201   O402      0.62062      .   S
    C123   O403      0.64942      .   S
    C200   O403      0.64942      .   S
    C135   O404      0.62069      .   S
    C205   O404      0.62069      .   S
    C135   O405      0.64936      .   S
    C204   O405      0.64936      .   S
    C13    O406      0.54359      .   S
    C88    O406      0.54359      .   S
    C5     O407      0.54368  1_655   S
    C76    O407      0.54368      .   S
    C86    O408      0.69934      .   S
    C88    O408      0.69934      .   S
    C86    O409      0.69952      .   S
    C85    O409      0.69952      .   S
    C74    O410      0.69941      .   S
    C76    O410      0.69941  1_455   S
    C74    O411      0.69959      .   S
    C73    O411      0.69959  1_455   S
    C14    O412      0.54447      .   S
    C85    O412      0.54447      .   S
    C6     O413      0.54450      .   S
    C73    O413      0.54450  1_455   S
    C88    O414      0.69434      .   S
    C89    O414      0.69434      .   S
    C76    O415      0.69428      .   S
    C77    O415      0.69428      .   S
    C200   O416      1.00136      .   S
    C3     O416      1.00136      .   S
    C204   O417      1.00100      .   S
    C3     O417      1.00100      .   S
    C85    O418      0.69373      .   S
    C84    O418      0.69373      .   S
    C73    O419      0.69367      .   S
    C72    O419      0.69367      .   S
    C89    O420      0.54538      .   S
    C12    O420      0.54538      .   S
    C89    O421      0.67747      .   S
    C171   O421      0.67747      .   S
    C77    O422      0.54537      .   S
    C4     O422      0.54537      .   S
    C77    O423      0.67696      .   S
    C169   O423      0.67696      .   S
    C84    O424      0.67768      .   S
    C171   O424      0.67768      .   S
    C84    O425      0.54605      .   S
    C15    O425      0.54605      .   S
    C72    O426      0.67735      .   S
    C169   O426      0.67735      .   S
    C72    O427      0.54604      .   S
    C7     O427      0.54604      .   S
    C3     O428      1.01033      .   S
    C214   O428      1.01033      .   S
    C3     O429      1.00945      .   S
    C210   O429      1.00945      .   S
    C171   O430      1.02599      .   S
    C68    O430      1.02599      .   S
    C169   O431      1.02615      .   S
    C68    O431      1.02615      .   S
    C214   O432      0.63948      .   S
    C167   O432      0.63948      .   S
    C210   O433      0.63945      .   S
    C155   O433      0.63945      .   S
    C68    O434      1.03378      .   S
    C168   O434      1.03378      .   S
    C68    O435      1.03456      .   S
    C170   O435      1.03456      .   S
    C211   O436      0.62664      .   S
    C155   O436      0.62664      .   S
    C215   O437      0.62668      .   S
    C167   O437      0.62668      .   S
    C167   O438      0.75735      .   S
    C164   O438      0.75735      .   S
    C155   O439      0.75708      .   S
    C152   O439      0.75708      .   S
    C8     O440      0.54490      .   S
    C82    O440      0.54490      .   S
    C16    O441      0.54492      .   S
    C94    O441      0.54492      .   S
    C58    O442      0.54416      .   S
    C151   O442      0.54416      .   S
    C66    O443      0.54456      .   S
    C163   O443      0.54456      .   S
    C164   O444      0.69905  1_455   S
    C163   O444      0.69905      .   S
    C164   O445      0.70131      .   S
    C165   O445      0.70131      .   S
    C152   O446      0.69883      .   S
    C151   O446      0.69883      .   S
    C152   O447      0.70062      .   S
    C153   O447      0.70062      .   S
    C168   O448      0.67689      .   S
    C82    O448      0.67689      .   S
    C168   O449      0.67679      .   S
    C78    O449      0.67679      .   S
    C170   O450      0.67693      .   S
    C94    O450      0.67693      .   S
    C170   O451      0.67687      .   S
    C90    O451      0.67687      .   S
    C19    O452      0.54426      .   S
    C90    O452      0.54426      .   S
    C11    O453      0.54425      .   S
    C78    O453      0.54425      .   S
    C65    O454      0.62400      .   S
    C165   O454      0.62400      .   S
    C57    O455      0.54473      .   S
    C153   O455      0.54473      .   S
