# CIF file generated by openbabel 2.4.90, see http://openbabel.sf.net
data_I
_chemical_name_common ''
_cell_length_a 14.809
_cell_length_b 21.175
_cell_length_c 21.172
_cell_angle_alpha 83.049
_cell_angle_beta 69.624
_cell_angle_gamma 69.642
_space_group_name_H-M_alt 'P 1'
_space_group_name_Hall 'P 1'
loop_
    _symmetry_equiv_pos_as_xyz
    x,y,z
loop_
    _atom_site_label
    _atom_site_type_symbol
    _atom_site_fract_x
    _atom_site_fract_y
    _atom_site_fract_z
    _atom_site_occupancy
    C0      C    0.70411   0.96998   0.93056   1.000
    C1      C    0.53106   0.99586   0.11988   1.000
    C2      C    0.10490   0.53018   0.56949   1.000
    C3      C    0.14674   0.50381   0.38019   1.000
    C4      C    0.63500   0.06946   0.46980   1.000
    C5      C    0.65025   0.88011   0.49608   1.000
    C6      C    0.67432   0.43056   0.02982   1.000
    C7      C    0.52689   0.61993   0.00400   1.000
    C8      C    0.29587   0.03002   0.06945   1.000
    C9      C    0.46893   0.00414   0.88013   1.000
    C10     C    0.89509   0.46982   0.43051   1.000
    C11     C    0.85324   0.49619   0.61982   1.000
    C12     C    0.36499   0.93054   0.53015   1.000
    C13     C    0.34975   0.11989   0.50392   1.000
    C14     C    0.32565   0.56945   0.97019   1.000
    C15     C    0.47310   0.38008   0.99596   1.000
