# CIF file generated by openbabel 2.4.90, see http://openbabel.sf.net
data_I
_chemical_name_common ''
_cell_length_a 14.809
_cell_length_b 21.175
_cell_length_c 21.172
_cell_angle_alpha 83.049
_cell_angle_beta 69.624
_cell_angle_gamma 69.642
_space_group_name_H-M_alt 'P 1'
_space_group_name_Hall 'P 1'
loop_
    _symmetry_equiv_pos_as_xyz
    x,y,z
loop_
    _atom_site_label
    _atom_site_type_symbol
    _atom_site_fract_x
    _atom_site_fract_y
    _atom_site_fract_z
    _atom_site_occupancy
    C0      C    0.50841   0.94761   0.00453   1.000
    C1      C    0.96098   0.55239   0.49527   1.000
    C2      C    0.51296   0.99533   0.44761   1.000
    C3      C    0.45635   0.50457   0.05241   1.000
    C4      C    0.49158   0.05239   0.99540   1.000
    C5      C    0.03900   0.44761   0.50473   1.000
    C6      C    0.48703   0.00467   0.55239   1.000
    C7      C    0.54362   0.49544   0.94760   1.000
    C8      C    0.98874   0.92896   0.73618   1.000
    C9      C    0.76703   0.04377   0.07973   1.000
    C10     C    0.76844   0.94466   0.02600   1.000
    C11     C    0.74355   0.06644   0.00000   1.000
    C12     C    0.03558   0.93444   0.92387   1.000
    C13     C    0.93834   0.86538   0.03212   1.000
    C14     C    0.17371   0.91114   0.82843   1.000
    C15     C    0.11731   0.99331   0.70967   1.000
    C16     C    0.11960   0.02691   0.78187   1.000
    C17     C    0.86559   0.05532   0.00655   1.000
    C18     C    0.97502   0.93639   0.03400   1.000
    C19     C    0.86953   0.92389   0.09988   1.000
    C20     C    0.15836   0.86313   0.70205   1.000
    C21     C    0.71415   0.94315   0.81920   1.000
    C22     C    0.77021   0.90859   0.70215   1.000
    C23     C    0.89235   0.91482   0.68570   1.000
    C24     C    0.85540   0.85211   0.74207   1.000
    C25     C    0.69145   0.03305   0.73327   1.000
    C26     C    0.70925   0.06260   0.80200   1.000
    C27     C    0.81131   0.04071   0.72430   1.000
    C28     C    0.54951   0.89014   0.20657   1.000
    C29     C    0.53670   0.09794   0.18433   1.000
    C30     C    0.55919   0.89248   0.32242   1.000
    C31     C    0.54890   0.09147   0.30080   1.000
    C32     C    0.23472   0.97497   0.72387   1.000
    C33     C    0.27088   0.84844   0.72110   1.000
    C34     C    0.17777   0.81170   0.77222   1.000
    C35     C    0.15465   0.57086   0.76419   1.000
    C36     C    0.38983   0.45674   0.42040   1.000
    C37     C    0.23910   0.55572   0.47420   1.000
    C38     C    0.31129   0.43390   0.49838   1.000
    C39     C    0.39396   0.56586   0.57670   1.000
    C40     C    0.33592   0.63508   0.46836   1.000
    C41     C    0.41355   0.58906   0.67234   1.000
    C42     C    0.32061   0.50664   0.79082   1.000
    C43     C    0.42848   0.47323   0.71870   1.000
    C44     C    0.42703   0.44509   0.49358   1.000
    C45     C    0.44567   0.56413   0.46603   1.000
    C46     C    0.39307   0.57664   0.40053   1.000
    C47     C    0.22430   0.63682   0.79859   1.000
    C48     C    0.97742   0.55645   0.68069   1.000
    C49     C    0.88206   0.59094   0.79779   1.000
    C50     C    0.99384   0.58502   0.81433   1.000
    C51     C    0.95047   0.64761   0.75790   1.000
    C52     C    0.95867   0.46648   0.76655   1.000
    C53     C    0.07465   0.43710   0.69802   1.000
    C54     C    0.07691   0.45913   0.77588   1.000
    C55     C    0.14697   0.60942   0.29342   1.000
    C56     C    0.31812   0.40156   0.31599   1.000
    C57     C    0.27466   0.60689   0.17768   1.000
    C58     C    0.44016   0.40781   0.19960   1.000
    C59     C    0.43369   0.52514   0.77694   1.000
    C60     C    0.34114   0.65156   0.77970   1.000
    C61     C    0.26253   0.68837   0.72857   1.000
    C62     C    0.72559   0.26403   0.42892   1.000
    C63     C    0.84642   0.92051   0.54358   1.000
    C64     C    0.79446   0.97416   0.44447   1.000
    C65     C    0.74526   0.99854   0.56630   1.000
    C66     C    0.95959   0.07657   0.43426   1.000
    C67     C    0.97037   0.96819   0.36516   1.000
    C68     C    0.00000   0.17213   0.41091   1.000
    C69     C    0.82760   0.29070   0.49324   1.000
    C70     C    0.90203   0.21859   0.52674   1.000
    C71     C    0.87214   0.99367   0.55516   1.000
    C72     C    0.00942   0.96590   0.43617   1.000
    C73     C    0.96913   0.90045   0.42368   1.000
    C74     C    0.86095   0.29833   0.36304   1.000
    C75     C    0.53391   0.18068   0.44330   1.000
    C76     C    0.47308   0.29774   0.40879   1.000
    C77     C    0.57895   0.31425   0.41482   1.000
    C78     C    0.59794   0.25790   0.35217   1.000
    C79     C    0.42560   0.26657   0.53327   1.000
    C80     C    0.51211   0.19801   0.56272   1.000
    C81     C    0.53650   0.27580   0.54073   1.000
    C82     C    0.75518   0.79329   0.39040   1.000
    C83     C    0.71987   0.81585   0.59828   1.000
    C84     C    0.88014   0.67751   0.39292   1.000
    C85     C    0.84795   0.69943   0.59196   1.000
    C86     C    0.95911   0.27672   0.47479   1.000
    C87     C    0.99246   0.27946   0.34831   1.000
    C88     C    0.95042   0.22827   0.31150   1.000
    C89     C    0.91799   0.23608   0.07070   1.000
    C90     C    0.81062   0.57972   0.95635   1.000
    C91     C    0.71343   0.52588   0.05530   1.000
    C92     C    0.80980   0.50171   0.93350   1.000
    C93     C    0.97030   0.42369   0.06555   1.000
    C94     C    0.80422   0.53187   0.13473   1.000
    C95     C    0.08514   0.32824   0.08888   1.000
    C96     C    0.11070   0.20967   0.00000   1.000
    C97     C    0.14641   0.28192   0.97299   1.000
    C98     C    0.92071   0.50659   0.94471   1.000
    C99     C    0.91166   0.53431   0.06380   1.000
    C100    C    0.79377   0.59968   0.07629   1.000
    C101    C    0.02212   0.20178   0.13650   1.000
    C102    C    0.65763   0.31924   0.05641   1.000
    C103    C    0.67901   0.20222   0.09111   1.000
    C104    C    0.80732   0.18578   0.08490   1.000
    C105    C    0.70793   0.24218   0.14760   1.000
    C106    C    0.72439   0.23314   0.96663   1.000
    C107    C    0.77181   0.30176   0.93700   1.000
    C108    C    0.85186   0.22409   0.95904   1.000
    C109    C    0.44014   0.70662   0.10976   1.000
    C110    C    0.63428   0.68429   0.90197   1.000
    C111    C    0.45220   0.82245   0.10742   1.000
    C112    C    0.64011   0.80073   0.90845   1.000
    C113    C    0.20979   0.22383   0.02485   1.000
    C114    C    0.11993   0.22087   0.15135   1.000
    C115    C    0.99022   0.27183   0.18813   1.000
    C116    C    0.01124   0.07105   0.26382   1.000
    C117    C    0.23295   0.95623   0.92027   1.000
    C118    C    0.23154   0.05535   0.97398   1.000
    C119    C    0.25643   0.93356   0.99800   1.000
    C120    C    0.96440   0.06557   0.07614   1.000
    C121    C    0.06165   0.13463   0.96780   1.000
    C122    C    0.82627   0.08887   0.17158   1.000
    C123    C    0.88266   0.00000   0.29034   1.000
    C124    C    0.88037   0.97311   0.21814   1.000
    C125    C    0.13439   0.94468   0.99346   1.000
    C126    C    0.02496   0.06362   0.96551   1.000
    C127    C    0.13045   0.07611   0.90013   1.000
    C128    C    0.84162   0.13689   0.29795   1.000
    C129    C    0.28583   0.05686   0.18075   1.000
    C130    C    0.22977   0.09142   0.29786   1.000
    C131    C    0.10763   0.08518   0.31425   1.000
    C132    C    0.14459   0.14789   0.25794   1.000
    C133    C    0.30853   0.96695   0.26674   1.000
    C134    C    0.29072   0.93740   0.19801   1.000
    C135    C    0.18866   0.95930   0.27571   1.000
    C136    C    0.45049   0.10986   0.79344   1.000
    C137    C    0.46329   0.90205   0.81568   1.000
    C138    C    0.44080   0.10752   0.67750   1.000
    C139    C    0.45109   0.90853   0.69921   1.000
    C140    C    0.76525   0.02505   0.27614   1.000
    C141    C    0.72910   0.15158   0.27885   1.000
    C142    C    0.82222   0.18831   0.22777   1.000
    C143    C    0.84532   0.42916   0.23582   1.000
    C144    C    0.61015   0.54326   0.57961   1.000
    C145    C    0.76088   0.44428   0.52581   1.000
    C146    C    0.68869   0.56610   0.50160   1.000
    C147    C    0.60602   0.43415   0.42330   1.000
    C148    C    0.66406   0.36492   0.53164   1.000
    C149    C    0.58642   0.41095   0.32766   1.000
    C150    C    0.67937   0.49337   0.20918   1.000
    C151    C    0.57150   0.52679   0.28130   1.000
    C152    C    0.57295   0.55491   0.50642   1.000
    C153    C    0.55431   0.43587   0.53398   1.000
    C154    C    0.60691   0.42337   0.59947   1.000
    C155    C    0.77567   0.36319   0.20141   1.000
    C156    C    0.02256   0.44356   0.31931   1.000
    C157    C    0.11792   0.40908   0.20222   1.000
    C158    C    0.00614   0.41499   0.18567   1.000
    C159    C    0.04950   0.35240   0.24204   1.000
    C160    C    0.04130   0.53353   0.23346   1.000
    C161    C    0.92533   0.56290   0.30199   1.000
    C162    C    0.92306   0.54089   0.22413   1.000
    C163    C    0.85300   0.39058   0.70659   1.000
    C164    C    0.68186   0.59844   0.68401   1.000
    C165    C    0.72532   0.39312   0.82233   1.000
    C166    C    0.55982   0.59219   0.80040   1.000
    C167    C    0.56629   0.47487   0.22306   1.000
    C168    C    0.65884   0.34845   0.22024   1.000
    C169    C    0.73745   0.31164   0.27144   1.000
    C170    C    0.27440   0.73597   0.57109   1.000
    C171    C    0.15358   0.07949   0.45643   1.000
    C172    C    0.20554   0.02584   0.55554   1.000
    C173    C    0.25474   0.00000   0.43371   1.000
    C174    C    0.04041   0.92343   0.56574   1.000
    C175    C    0.02962   0.03181   0.63484   1.000
    C176    C    0.99752   0.82788   0.58909   1.000
    C177    C    0.17238   0.70931   0.50676   1.000
    C178    C    0.09795   0.78142   0.47326   1.000
    C179    C    0.12786   0.00633   0.44485   1.000
    C180    C    0.99058   0.03411   0.56383   1.000
    C181    C    0.03087   0.09956   0.57633   1.000
    C182    C    0.13903   0.70167   0.63697   1.000
    C183    C    0.46608   0.81932   0.55671   1.000
    C184    C    0.52691   0.70226   0.59120   1.000
    C185    C    0.42104   0.68575   0.58518   1.000
    C186    C    0.40204   0.74210   0.64784   1.000
    C187    C    0.57438   0.73343   0.46673   1.000
    C188    C    0.48788   0.80199   0.43729   1.000
    C189    C    0.46349   0.72421   0.45927   1.000
    C190    C    0.24483   0.20671   0.60957   1.000
    C191    C    0.28012   0.18414   0.40173   1.000
    C192    C    0.11986   0.32249   0.60708   1.000
    C193    C    0.15205   0.30056   0.40804   1.000
    C194    C    0.04087   0.72329   0.52522   1.000
    C195    C    0.00753   0.72055   0.65169   1.000
    C196    C    0.04956   0.77174   0.68848   1.000
    C197    C    0.08199   0.76393   0.92930   1.000
    C198    C    0.18936   0.42029   0.04366   1.000
    C199    C    0.28655   0.47413   0.94470   1.000
    C200    C    0.19018   0.49830   0.06650   1.000
    C201    C    0.02967   0.57632   0.93446   1.000
    C202    C    0.19576   0.46814   0.86527   1.000
    C203    C    0.91484   0.67178   0.91113   1.000
    C204    C    0.88928   0.79034   0.99364   1.000
    C205    C    0.85357   0.71809   0.02702   1.000
    C206    C    0.07927   0.49342   0.05530   1.000
    C207    C    0.08832   0.46570   0.93621   1.000
    C208    C    0.20621   0.40033   0.92370   1.000
    C209    C    0.97786   0.79822   0.86350   1.000
    C210    C    0.34235   0.68077   0.94360   1.000
    C211    C    0.32098   0.79779   0.90800   1.000
    C212    C    0.19267   0.81423   0.91502   1.000
    C213    C    0.29206   0.75782   0.85240   1.000
    C214    C    0.27559   0.76688   0.03338   1.000
    C215    C    0.22817   0.69826   0.06300   1.000
    C216    C    0.14811   0.77593   0.04096   1.000
    C217    C    0.55986   0.29338   0.89025   1.000
    C218    C    0.36571   0.31571   0.09800   1.000
    C219    C    0.54781   0.17755   0.89259   1.000
    C220    C    0.35988   0.19927   0.09157   1.000
    C221    C    0.79019   0.77618   0.97516   1.000
    C222    C    0.88005   0.77914   0.84866   1.000
    C223    C    0.00000   0.72817   0.81187   1.000
    C224    C    0.70411   0.96998   0.93056   1.000
    C225    C    0.81569   0.95476   0.89422   1.000
    C226    C    0.88012   0.95037   0.93151   1.000
    C227    C    0.98399   0.93813   0.89623   1.000
    C228    C    0.02438   0.93072   0.82610   1.000
    C229    C    0.95806   0.93514   0.79079   1.000
    C230    C    0.85379   0.94692   0.82363   1.000
    C231    C    0.83631   0.96095   0.00756   1.000
    C232    C    0.80071   0.03622   0.02485   1.000
    C233    C    0.90927   0.91906   0.04522   1.000
    C234    C    0.13705   0.91949   0.78943   1.000
    C235    C    0.15317   0.98242   0.74909   1.000
    C236    C    0.18857   0.85700   0.74386   1.000
    C237    C    0.78205   0.95409   0.78425   1.000
    C238    C    0.82789   0.90437   0.72540   1.000
    C239    C    0.74619   0.02709   0.75958   1.000
    C240    C    0.53106   0.99586   0.11988   1.000
    C241    C    0.54157   0.99429   0.18672   1.000
    C242    C    0.54918   0.93551   0.22607   1.000
    C243    C    0.54192   0.05165   0.21367   1.000
    C244    C    0.55484   0.93688   0.28997   1.000
    C245    C    0.54852   0.04804   0.27790   1.000
    C246    C    0.10490   0.53018   0.56949   1.000
    C247    C    0.16502   0.54537   0.60596   1.000
    C248    C    0.26217   0.54988   0.56880   1.000
    C249    C    0.31857   0.56209   0.60423   1.000
    C250    C    0.28159   0.56937   0.67438   1.000
    C251    C    0.18460   0.56480   0.70956   1.000
    C252    C    0.12493   0.55301   0.67657   1.000
    C253    C    0.30475   0.53943   0.49271   1.000
    C254    C    0.36136   0.46420   0.47529   1.000
    C255    C    0.37344   0.58141   0.45521   1.000
    C256    C    0.34636   0.58061   0.71123   1.000
    C257    C    0.38490   0.51765   0.75154   1.000
    C258    C    0.29011   0.64302   0.75690   1.000
    C259    C    0.02121   0.54563   0.71580   1.000
    C260    C    0.95860   0.59533   0.77460   1.000
    C261    C    0.03365   0.47261   0.74043   1.000
    C262    C    0.14674   0.50381   0.38019   1.000
    C263    C    0.22252   0.50524   0.31343   1.000
    C264    C    0.21113   0.56399   0.27400   1.000
    C265    C    0.30670   0.44782   0.28660   1.000
    C266    C    0.28196   0.56250   0.21017   1.000
    C267    C    0.37392   0.45132   0.22230   1.000
    C268    C    0.63500   0.06946   0.46980   1.000
    C269    C    0.71027   0.10591   0.45466   1.000
    C270    C    0.81186   0.06874   0.45021   1.000
    C271    C    0.88049   0.10412   0.43797   1.000
    C272    C    0.85088   0.17423   0.43059   1.000
    C273    C    0.74940   0.20943   0.43506   1.000
    C274    C    0.67792   0.17649   0.44687   1.000
    C275    C    0.84388   0.99268   0.46077   1.000
    C276    C    0.82548   0.97538   0.53604   1.000
    C277    C    0.95436   0.95510   0.41885   1.000
    C278    C    0.92690   0.21104   0.41933   1.000
    C279    C    0.90279   0.25138   0.48228   1.000
    C280    C    0.93288   0.25663   0.35687   1.000
    C281    C    0.56692   0.21575   0.45417   1.000
    C282    C    0.55396   0.27457   0.40446   1.000
    C283    C    0.50660   0.24040   0.52720   1.000
    C284    C    0.65025   0.88011   0.49608   1.000
    C285    C    0.72728   0.81330   0.49460   1.000
    C286    C    0.77417   0.77388   0.43585   1.000
    C287    C    0.75436   0.78645   0.55201   1.000
    C288    C    0.84341   0.71001   0.43731   1.000
    C289    C    0.82495   0.72217   0.54847   1.000
    C290    C    0.67432   0.43056   0.02982   1.000
    C291    C    0.77077   0.39413   0.04496   1.000
    C292    C    0.83080   0.43138   0.04949   1.000
    C293    C    0.92243   0.39608   0.06170   1.000
    C294    C    0.95538   0.32596   0.06910   1.000
    C295    C    0.89351   0.29068   0.06450   1.000
    C296    C    0.80100   0.32355   0.05275   1.000
    C297    C    0.79751   0.50744   0.03903   1.000
    C298    C    0.83682   0.52484   0.96381   1.000
    C299    C    0.82868   0.54503   0.08106   1.000
    C300    C    0.05686   0.28926   0.08037   1.000
    C301    C    0.13568   0.24906   0.01737   1.000
    C302    C    0.04616   0.24357   0.14277   1.000
    C303    C    0.73637   0.28420   0.04554   1.000
    C304    C    0.73252   0.22545   0.09534   1.000
    C305    C    0.77324   0.25942   0.97250   1.000
    C306    C    0.52689   0.61993   0.00400   1.000
    C307    C    0.53592   0.68674   0.00500   1.000
    C308    C    0.48501   0.72610   0.06439   1.000
    C309    C    0.59340   0.71365   0.94827   1.000
    C310    C    0.49207   0.78998   0.06302   1.000
    C311    C    0.59645   0.77793   0.95188   1.000
    C312    C    0.29587   0.03002   0.06945   1.000
    C313    C    0.18429   0.04524   0.10578   1.000
    C314    C    0.11986   0.04964   0.06849   1.000
    C315    C    0.01599   0.06188   0.10377   1.000
    C316    C    0.97560   0.06929   0.17390   1.000
    C317    C    0.04192   0.06486   0.20922   1.000
    C318    C    0.14619   0.05309   0.17638   1.000
    C319    C    0.16367   0.03905   0.99245   1.000
    C320    C    0.19927   0.96379   0.97516   1.000
    C321    C    0.09072   0.08095   0.95478   1.000
    C322    C    0.86293   0.08052   0.21058   1.000
    C323    C    0.84681   0.01760   0.25092   1.000
    C324    C    0.81141   0.14301   0.25614   1.000
    C325    C    0.21793   0.04591   0.21576   1.000
    C326    C    0.17208   0.09564   0.27461   1.000
    C327    C    0.25379   0.97291   0.24043   1.000
    C328    C    0.46893   0.00414   0.88013   1.000
    C329    C    0.45842   0.00570   0.81329   1.000
    C330    C    0.45081   0.06448   0.77394   1.000
    C331    C    0.45807   0.94835   0.78634   1.000
    C332    C    0.44516   0.06311   0.71004   1.000
    C333    C    0.45147   0.95196   0.72203   1.000
    C334    C    0.89509   0.46982   0.43051   1.000
    C335    C    0.83497   0.45463   0.39405   1.000
    C336    C    0.73781   0.45012   0.43120   1.000
    C337    C    0.68141   0.43791   0.39577   1.000
    C338    C    0.71838   0.43064   0.32562   1.000
    C339    C    0.81538   0.43521   0.29044   1.000
    C340    C    0.87505   0.44700   0.32343   1.000
    C341    C    0.69523   0.46058   0.50729   1.000
    C342    C    0.63862   0.53580   0.52471   1.000
    C343    C    0.62654   0.41859   0.54480   1.000
    C344    C    0.65362   0.41941   0.28877   1.000
    C345    C    0.61508   0.48236   0.24846   1.000
    C346    C    0.70987   0.35699   0.24310   1.000
    C347    C    0.97877   0.45438   0.28421   1.000
    C348    C    0.04138   0.40468   0.22538   1.000
    C349    C    0.96633   0.52740   0.25958   1.000
    C350    C    0.85324   0.49619   0.61982   1.000
    C351    C    0.77746   0.49476   0.68658   1.000
    C352    C    0.78885   0.43602   0.72600   1.000
    C353    C    0.69329   0.55218   0.71341   1.000
    C354    C    0.71801   0.43750   0.78984   1.000
    C355    C    0.62606   0.54868   0.77768   1.000
    C356    C    0.36499   0.93054   0.53015   1.000
    C357    C    0.28972   0.89409   0.54535   1.000
    C358    C    0.18813   0.93126   0.54900   1.000
    C359    C    0.11950   0.89589   0.56200   1.000
    C360    C    0.14911   0.82577   0.56942   1.000
    C361    C    0.25059   0.79057   0.56494   1.000
    C362    C    0.32206   0.82351   0.55314   1.000
    C363    C    0.15611   0.00732   0.53923   1.000
    C364    C    0.17452   0.02462   0.46396   1.000
    C365    C    0.04563   0.04491   0.58115   1.000
    C366    C    0.07309   0.78897   0.58067   1.000
    C367    C    0.09719   0.74863   0.51772   1.000
    C368    C    0.06710   0.74338   0.64314   1.000
    C369    C    0.43307   0.78425   0.54584   1.000
    C370    C    0.44603   0.72544   0.59555   1.000
    C371    C    0.49339   0.75960   0.47280   1.000
    C372    C    0.34975   0.11989   0.50392   1.000
    C373    C    0.27272   0.18670   0.50540   1.000
    C374    C    0.22584   0.22613   0.56415   1.000
    C375    C    0.24564   0.21354   0.44800   1.000
    C376    C    0.15659   0.28999   0.56269   1.000
    C377    C    0.17504   0.27783   0.45153   1.000
    C378    C    0.32565   0.56945   0.97019   1.000
    C379    C    0.22920   0.60588   0.95505   1.000
    C380    C    0.16918   0.56863   0.95052   1.000
    C381    C    0.07754   0.60393   0.93824   1.000
    C382    C    0.04460   0.67405   0.93091   1.000
    C383    C    0.10647   0.70933   0.93544   1.000
    C384    C    0.19897   0.67646   0.94726   1.000
    C385    C    0.20247   0.49257   0.96098   1.000
    C386    C    0.16316   0.47517   0.03600   1.000
    C387    C    0.17130   0.45498   0.91895   1.000
    C388    C    0.94312   0.71075   0.91964   1.000
    C389    C    0.86430   0.75095   0.98263   1.000
    C390    C    0.95382   0.75643   0.85724   1.000
    C391    C    0.26361   0.71581   0.95440   1.000
    C392    C    0.26747   0.77456   0.90466   1.000
    C393    C    0.22673   0.74060   0.02742   1.000
    C394    C    0.47310   0.38008   0.99596   1.000
    C395    C    0.46408   0.31326   0.99442   1.000
    C396    C    0.51498   0.27390   0.93563   1.000
    C397    C    0.40659   0.28636   0.05175   1.000
    C398    C    0.50793   0.21002   0.93700   1.000
    C399    C    0.40354   0.22207   0.04813   1.000
    C400    C    0.55421   0.99198   0.31635   1.000
    C401    C    0.36234   0.50733   0.18380   1.000
    C402    C    0.86895   0.68372   0.49246   1.000
    C403    C    0.54635   0.81633   0.00791   1.000
    C404    C    0.44578   0.00801   0.68366   1.000
    C405    C    0.63763   0.49268   0.81612   1.000
    C406    C    0.13105   0.31628   0.50750   1.000
    C407    C    0.45365   0.18367   0.99210   1.000
    C408    C    0.66684   0.92178   0.95065   1.000
    C409    C    0.53435   0.94138   0.09630   1.000
    C410    C    0.64746   0.03221   0.94169   1.000
    C411    C    0.51697   0.05183   0.08682   1.000
    C412    C    0.03984   0.57837   0.54923   1.000
    C413    C    0.07232   0.55836   0.40353   1.000
    C414    C    0.12112   0.46795   0.55849   1.000
    C415    C    0.15519   0.44795   0.41340   1.000
    C416    C    0.61782   0.04925   0.42160   1.000
    C417    C    0.63011   0.90356   0.44157   1.000
    C418    C    0.58939   0.05839   0.53211   1.000
    C419    C    0.60326   0.91329   0.55199   1.000
    C420    C    0.58913   0.45069   0.07808   1.000
    C421    C    0.47596   0.59640   0.05859   1.000
    C422    C    0.67949   0.44175   0.96764   1.000
    C423    C    0.56840   0.58685   0.94810   1.000
    C424    C    0.33315   0.07822   0.04935   1.000
    C425    C    0.46564   0.05862   0.90371   1.000
    C426    C    0.35252   0.96779   0.05832   1.000
    C427    C    0.48302   0.94817   0.91319   1.000
    C428    C    0.96014   0.42163   0.45078   1.000
    C429    C    0.92766   0.44164   0.59648   1.000
    C430    C    0.87886   0.53205   0.44152   1.000
    C431    C    0.84479   0.55205   0.58661   1.000
    C432    C    0.38217   0.95076   0.57833   1.000
    C433    C    0.36989   0.09644   0.55844   1.000
    C434    C    0.41061   0.94161   0.46790   1.000
    C435    C    0.39674   0.08671   0.44800   1.000
    C436    C    0.41084   0.54931   0.92193   1.000
    C437    C    0.52402   0.40361   0.94142   1.000
    C438    C    0.32049   0.55827   0.03237   1.000
    C439    C    0.43158   0.41316   0.05180   1.000
    O440    O    0.12319   0.22937   0.00868   1.000
    O441    O    0.77213   0.05133   0.01242   1.000
    O442    O    0.53140   0.65334   0.00450   1.000
    O443    O    0.50142   0.60816   0.03129   1.000
    O444    O    0.54764   0.60339   0.97605   1.000
    O445    O    0.52738   0.88197   0.00622   1.000
    O446    O    0.43046   0.95770   0.03142   1.000
    O447    O    0.52138   0.94449   0.05041   1.000
    O448    O    0.49571   0.94789   0.95886   1.000
    O449    O    0.58762   0.93469   0.97759   1.000
    O450    O    0.51047   0.70642   0.03469   1.000
    O451    O    0.56466   0.70019   0.97663   1.000
    O452    O    0.83315   0.04577   0.01570   1.000
    O453    O    0.81851   0.99858   0.01620   1.000
    O454    O    0.80238   0.95280   0.01678   1.000
    O455    O    0.87279   0.94000   0.02639   1.000
    O456    O    0.85822   0.95566   0.96953   1.000
    O457    O    0.51921   0.80315   0.03546   1.000
    O458    O    0.57140   0.79713   0.97989   1.000
    O459    O    0.17274   0.23645   0.02111   1.000
    O460    O    0.09627   0.26916   0.04887   1.000
    O461    O    0.14105   0.26549   0.99518   1.000
    O462    O    0.78387   0.03999   0.05229   1.000
    O463    O    0.85893   0.73452   0.00482   1.000
    O464    O    0.25116   0.75374   0.03040   1.000
    O465    O    0.18742   0.75826   0.03419   1.000
    O466    O    0.22745   0.71943   0.04521   1.000
    O467    O    0.24517   0.72820   0.99091   1.000
    O468    O    0.72255   0.41234   0.03739   1.000
    O469    O    0.63173   0.44062   0.05395   1.000
    O470    O    0.67691   0.43615   0.99873   1.000
    O471    O    0.92380   0.89222   0.03867   1.000
    O472    O    0.38842   0.53142   0.04239   1.000
    O473    O    0.32307   0.56386   0.00128   1.000
    O474    O    0.94214   0.92772   0.03961   1.000
    O475    O    0.17626   0.44773   0.03983   1.000
    O476    O    0.12121   0.48430   0.04565   1.000
    O477    O    0.17667   0.48673   0.05125   1.000
    O478    O    0.18281   0.48387   0.99849   1.000
    O479    O    0.81415   0.46941   0.04426   1.000
    O480    O    0.75547   0.51666   0.04716   1.000
    O481    O    0.81309   0.52624   0.06004   1.000
    O482    O    0.81716   0.51614   0.00142   1.000
    O483    O    0.80079   0.41275   0.04722   1.000
    O484    O    0.78589   0.35884   0.04885   1.000
    O485    O    0.88940   0.92148   0.07255   1.000
    O486    O    0.76869   0.30387   0.04914   1.000
    O487    O    0.69700   0.30172   0.05097   1.000
    O488    O    0.73444   0.25482   0.07044   1.000
    O489    O    0.75481   0.27181   0.00902   1.000
    O490    O    0.40507   0.25421   0.04994   1.000
    O491    O    0.38171   0.21067   0.06985   1.000
    O492    O    0.42860   0.20287   0.02011   1.000
    O493    O    0.31451   0.05412   0.05940   1.000
    O494    O    0.41236   0.06531   0.02237   1.000
    O495    O    0.87662   0.41373   0.05559   1.000
    O496    O    0.38615   0.30103   0.07487   1.000
    O497    O    0.43533   0.29981   0.02308   1.000
    O498    O    0.44397   0.45887   0.05210   1.000
    O499    O    0.45234   0.39662   0.02388   1.000
    O500    O    0.46616   0.55049   0.05550   1.000
    O501    O    0.52274   0.47763   0.06524   1.000
    O502    O    0.40935   0.50595   0.11810   1.000
    O503    O    0.84726   0.30711   0.05862   1.000
    O504    O    0.32420   0.99891   0.06388   1.000
    O505    O    0.94637   0.40988   0.06362   1.000
    O506    O    0.93891   0.36102   0.06540   1.000
    O507    O    0.48854   0.75804   0.06370   1.000
    O508    O    0.47213   0.80622   0.08522   1.000
    O509    O    0.87017   0.53967   0.07243   1.000
    O510    O    0.46258   0.71636   0.08707   1.000
    O511    O    0.92445   0.30832   0.06680   1.000
    O512    O    0.90575   0.26338   0.06760   1.000
    O513    O    0.06793   0.05576   0.08613   1.000
    O514    O    0.15208   0.04744   0.08713   1.000
    O515    O    0.14177   0.04435   0.03047   1.000
    O516    O    0.00612   0.30761   0.07473   1.000
    O517    O    0.24008   0.03763   0.08761   1.000
    O518    O    0.99020   0.06373   0.08995   1.000
    O519    O    0.81122   0.57236   0.07867   1.000
    O520    O    0.07100   0.30875   0.08462   1.000
    O521    O    0.05151   0.26642   0.11157   1.000
    O522    O    0.81645   0.53845   0.10789   1.000
    O523    O    0.76992   0.20561   0.09012   1.000
    O524    O    0.52401   0.02385   0.10335   1.000
    O525    O    0.50427   0.05211   0.04111   1.000
    O526    O    0.70576   0.21383   0.09322   1.000
    O527    O    0.72022   0.23381   0.12147   1.000
    O528    O    0.53270   0.96862   0.10809   1.000
    O529    O    0.99580   0.06558   0.13883   1.000
    O530    O    0.16524   0.04916   0.14108   1.000
    O531    O    0.53631   0.99508   0.15330   1.000
    O532    O    0.03414   0.22268   0.13963   1.000
    O533    O    0.08304   0.23222   0.14706   1.000
    O534    O    0.01819   0.25770   0.16545   1.000
    O535    O    0.84460   0.08470   0.19108   1.000
    O536    O    0.00876   0.06707   0.19156   1.000
    O537    O    0.91927   0.07490   0.19224   1.000
    O538    O    0.09406   0.05897   0.19280   1.000
    O539    O    0.18206   0.04950   0.19607   1.000
    O540    O    0.27831   0.58470   0.19392   1.000
    O541    O    0.25188   0.05138   0.19825   1.000
    O542    O    0.32215   0.53492   0.19698   1.000
    O543    O    0.36813   0.47933   0.20305   1.000
    O544    O    0.53931   0.07480   0.19900   1.000
    O545    O    0.02376   0.40984   0.20552   1.000
    O546    O    0.54174   0.02297   0.20019   1.000
    O547    O    0.54537   0.96490   0.20639   1.000
    O548    O    0.27225   0.95516   0.21922   1.000
    O549    O    0.40704   0.42957   0.21095   1.000
    O550    O    0.74277   0.36009   0.22225   1.000
    O551    O    0.07965   0.40688   0.21380   1.000
    O552    O    0.54934   0.91283   0.21632   1.000
    O553    O    0.64722   0.48786   0.22882   1.000
    O554    O    0.02658   0.06795   0.23652   1.000
    O555    O    0.24655   0.56324   0.24208   1.000
    O556    O    0.85487   0.04906   0.23075   1.000
    O557    O    0.83717   0.11176   0.23336   1.000
    O558    O    0.54522   0.04985   0.24578   1.000
    O559    O    0.23586   0.00941   0.22809   1.000
    O560    O    0.19501   0.07077   0.24518   1.000
    O561    O    0.86359   0.99535   0.23453   1.000
    O562    O    0.68436   0.35272   0.23167   1.000
    O563    O    0.34031   0.44957   0.25445   1.000
    O564    O    0.59068   0.47861   0.23576   1.000
    O565    O    0.94470   0.53415   0.24185   1.000
    O566    O    0.04544   0.37854   0.23371   1.000
    O567    O    0.01008   0.42953   0.25479   1.000
    O568    O    0.55201   0.93620   0.25802   1.000
    O569    O    0.81682   0.16566   0.24195   1.000
    O570    O    0.00381   0.53047   0.24652   1.000
    O571    O    0.83035   0.43218   0.26313   1.000
    O572    O    0.28116   0.96993   0.25358   1.000
    O573    O    0.22122   0.96610   0.25807   1.000
    O574    O    0.72366   0.33432   0.25727   1.000
    O575    O    0.68175   0.38820   0.26593   1.000
    O576    O    0.59329   0.50457   0.26488   1.000
    O577    O    0.63435   0.45088   0.26861   1.000
    O578    O    0.80603   0.02132   0.26353   1.000
    O579    O    0.86474   0.00880   0.27063   1.000
    O580    O    0.77026   0.14729   0.26749   1.000
    O581    O    0.82652   0.13995   0.27704   1.000
    O582    O    0.15833   0.12176   0.26627   1.000
    O583    O    0.97255   0.49089   0.27189   1.000
    O584    O    0.94583   0.54515   0.28078   1.000
    O585    O    0.17905   0.58670   0.28371   1.000
    O586    O    0.21683   0.53461   0.29371   1.000
    O587    O    0.20093   0.09353   0.28623   1.000
    O588    O    0.13986   0.09041   0.29443   1.000
    O589    O    0.54871   0.06975   0.28935   1.000
    O590    O    0.55136   0.02001   0.29712   1.000
    O591    O    0.00066   0.44897   0.30176   1.000
    O592    O    0.92691   0.45069   0.30382   1.000
    O593    O    0.26461   0.47653   0.30001   1.000
    O594    O    0.31241   0.42469   0.30129   1.000
    O595    O    0.68600   0.42503   0.30719   1.000
    O596    O    0.62002   0.41518   0.30821   1.000
    O597    O    0.55452   0.96443   0.30316   1.000
    O598    O    0.55702   0.91468   0.30619   1.000
    O599    O    0.84522   0.44110   0.30693   1.000
    O600    O    0.76688   0.43293   0.30803   1.000
    O601    O    0.94165   0.24245   0.33418   1.000
    O602    O    0.18463   0.50453   0.34681   1.000
    O603    O    0.53359   0.99366   0.38198   1.000
    O604    O    0.85501   0.45081   0.35874   1.000
    O605    O    0.69990   0.43428   0.36069   1.000
    O606    O    0.96267   0.26805   0.35259   1.000
    O607    O    0.57595   0.26623   0.37831   1.000
    O608    O    0.89692   0.27748   0.35995   1.000
    O609    O    0.92989   0.23383   0.38810   1.000
    O610    O    0.96237   0.96164   0.39200   1.000
    O611    O    0.10953   0.53108   0.39186   1.000
    O612    O    0.15097   0.47588   0.39679   1.000
    O613    O    0.76467   0.78358   0.41312   1.000
    O614    O    0.86178   0.69376   0.41511   1.000
    O615    O    0.86503   0.46223   0.41228   1.000
    O616    O    0.78639   0.45238   0.41262   1.000
    O617    O    0.64371   0.43603   0.40953   1.000
    O618    O    0.70961   0.44402   0.41348   1.000
    O619    O    0.38325   0.57903   0.42787   1.000
    O620    O    0.26288   0.19884   0.42486   1.000
    O621    O    0.01665   0.55537   0.44940   1.000
    O622    O    0.51352   0.28615   0.40662   1.000
    O623    O    0.56645   0.29441   0.40964   1.000
    O624    O    0.56044   0.24516   0.42931   1.000
    O625    O    0.16354   0.28920   0.42978   1.000
    O626    O    0.96345   0.19158   0.41512   1.000
    O627    O    0.09710   0.44778   0.45906   1.000
    O628    O    0.96175   0.92777   0.42126   1.000
    O629    O    0.98189   0.96050   0.42751   1.000
    O630    O    0.89912   0.97389   0.43981   1.000
    O631    O    0.88889   0.19264   0.42496   1.000
    O632    O    0.91484   0.23121   0.45080   1.000
    O633    O    0.37559   0.46047   0.44784   1.000
    O634    O    0.56539   0.02229   0.43460   1.000
    O635    O    0.62641   0.05935   0.44570   1.000
    O636    O    0.73749   0.23673   0.43199   1.000
    O637    O    0.88698   0.50094   0.43601   1.000
    O638    O    0.92761   0.44573   0.44064   1.000
    O639    O    0.80014   0.19183   0.43282   1.000
    O640    O    0.86568   0.13918   0.43428   1.000
    O641    O    0.71652   0.45535   0.46924   1.000
    O642    O    0.21463   0.01231   0.44883   1.000
    O643    O    0.92004   0.09035   0.43611   1.000
    O644    O    0.71366   0.19296   0.44096   1.000
    O645    O    0.80879   0.74194   0.43658   1.000
    O646    O    0.75073   0.79359   0.46522   1.000
    O647    O    0.49063   0.78080   0.45504   1.000
    O648    O    0.85618   0.69687   0.46488   1.000
    O649    O    0.84617   0.08643   0.44409   1.000
    O650    O    0.91992   0.54222   0.46839   1.000
    O651    O    0.57154   0.94944   0.44459   1.000
    O652    O    0.64018   0.89184   0.46882   1.000
    O653    O    0.55041   0.19822   0.44873   1.000
    O654    O    0.81917   0.98342   0.45262   1.000
    O655    O    0.15119   0.01548   0.45440   1.000
    O656    O    0.62242   0.19612   0.45052   1.000
    O657    O    0.69410   0.14120   0.45076   1.000
    O658    O    0.45485   0.04102   0.44780   1.000
    O659    O    0.46178   0.96847   0.45775   1.000
    O660    O    0.21034   0.24569   0.44976   1.000
    O661    O    0.25918   0.20012   0.47670   1.000
    O662    O    0.37324   0.10330   0.47596   1.000
    O663    O    0.76106   0.08733   0.45243   1.000
    O664    O    0.82787   0.03071   0.45549   1.000
    O665    O    0.99957   0.43462   0.47775   1.000
    O666    O    0.15305   0.29705   0.47951   1.000
    O667    O    0.53676   0.22808   0.49068   1.000
    O668    O    0.67263   0.08769   0.46223   1.000
    O669    O    0.40956   0.57277   0.46062   1.000
    O670    O    0.35468   0.60825   0.46178   1.000
    O671    O    0.33909   0.56042   0.47396   1.000
    O672    O    0.16405   0.05206   0.46019   1.000
    O673    O    0.47844   0.74190   0.46603   1.000
    O674    O    0.83468   0.98403   0.49840   1.000
    O675    O    0.16531   0.01597   0.50159   1.000
    O676    O    0.53389   0.74651   0.46976   1.000
    O677    O    0.38780   0.93607   0.49902   1.000
    O678    O    0.61219   0.06393   0.50095   1.000
    O679    O    0.46323   0.77193   0.50932   1.000
    O680    O    0.09757   0.76502   0.49549   1.000
    O681    O    0.27192   0.54758   0.48345   1.000
    O682    O    0.93095   0.26405   0.47853   1.000
    O683    O    0.33305   0.50181   0.48400   1.000
    O684    O    0.39419   0.45465   0.48443   1.000
    O685    O    0.33632   0.44905   0.48683   1.000
    O686    O    0.86520   0.27104   0.48776   1.000
    O687    O    0.90241   0.23498   0.50451   1.000
    O688    O    0.91496   0.61806   0.49386   1.000
    O689    O    0.84695   0.70295   0.52046   1.000
    O690    O    0.28346   0.54466   0.53075   1.000
    O691    O    0.68877   0.84671   0.49534   1.000
    O692    O    0.74082   0.79988   0.52330   1.000
    O693    O    0.00041   0.56538   0.52225   1.000
    O694    O    0.90289   0.55222   0.54094   1.000
    O695    O    0.62675   0.89670   0.52403   1.000
    O696    O    0.66366   0.55095   0.51315   1.000
    O697    O    0.31123   0.15329   0.50466   1.000
    O698    O    0.35982   0.10816   0.53118   1.000
    O699    O    0.08503   0.38194   0.50611   1.000
    O700    O    0.08006   0.45778   0.53161   1.000
    O701    O    0.98333   0.44463   0.55060   1.000
    O702    O    0.24928   0.20641   0.53477   1.000
    O703    O    0.60579   0.54536   0.51556   1.000
    O704    O    0.13479   0.72897   0.51224   1.000
    O705    O    0.66693   0.49819   0.51600   1.000
    O706    O    0.72806   0.45243   0.51655   1.000
    O707    O    0.66089   0.43958   0.52604   1.000
    O708    O    0.14382   0.30313   0.53509   1.000
    O709    O    0.06903   0.73596   0.52147   1.000
    O710    O    0.08514   0.76880   0.54919   1.000
    O711    O    0.62439   0.53953   0.55216   1.000
    O712    O    0.46610   0.25349   0.53023   1.000
    O713    O    0.52155   0.25810   0.53396   1.000
    O714    O    0.50936   0.21921   0.54496   1.000
    O715    O    0.32736   0.91231   0.53775   1.000
    O716    O    0.37358   0.94065   0.55424   1.000
    O717    O    0.64530   0.39176   0.53822   1.000
    O718    O    0.53821   0.03153   0.54225   1.000
    O719    O    0.59042   0.42723   0.53939   1.000
    O720    O    0.83595   0.94795   0.53981   1.000
    O721    O    0.84881   0.98453   0.54560   1.000
    O722    O    0.78537   0.98696   0.55117   1.000
    O723    O    0.17212   0.96929   0.54411   1.000
    O724    O    0.18082   0.01658   0.54738   1.000
    O725    O    0.10087   0.02612   0.56019   1.000
    O726    O    0.61673   0.42098   0.57213   1.000
    O727    O    0.23893   0.91268   0.54717   1.000
    O728    O    0.30589   0.85880   0.54924   1.000
    O729    O    0.37757   0.80388   0.54949   1.000
    O730    O    0.44957   0.80179   0.55127   1.000
    O731    O    0.43955   0.75484   0.57069   1.000
    O732    O    0.78966   0.75431   0.55024   1.000
    O733    O    0.83645   0.71080   0.57021   1.000
    O734    O    0.15382   0.91358   0.55550   1.000
    O735    O    0.07237   0.55427   0.55936   1.000
    O736    O    0.54515   0.95898   0.55219   1.000
    O737    O    0.73711   0.80115   0.57514   1.000
    O738    O    0.42846   0.05056   0.55541   1.000
    O739    O    0.43460   0.97771   0.56536   1.000
    O740    O    0.46641   0.00634   0.61802   1.000
    O741    O    0.28633   0.80704   0.55904   1.000
    O742    O    0.11301   0.49906   0.56399   1.000
    O743    O    0.07995   0.90966   0.56387   1.000
    O744    O    0.13431   0.86083   0.56571   1.000
    O745    O    0.19121   0.25806   0.56342   1.000
    O746    O    0.13823   0.30624   0.58488   1.000
    O747    O    0.01810   0.03951   0.57249   1.000
    O748    O    0.23533   0.21642   0.58686   1.000
    O749    O    0.19985   0.80817   0.56718   1.000
    O750    O    0.26249   0.76327   0.56801   1.000
    O751    O    0.29037   0.55599   0.58651   1.000
    O752    O    0.21359   0.54763   0.58738   1.000
    O753    O    0.11110   0.80737   0.57504   1.000
    O754    O    0.13496   0.53777   0.58772   1.000
    O755    O    0.03825   0.07223   0.57874   1.000
    O756    O    0.35627   0.56398   0.59046   1.000
    O757    O    0.03531   0.80843   0.58488   1.000
    O758    O    0.07010   0.76617   0.61190   1.000
    O759    O    0.03762   0.03836   0.60799   1.000
    O760    O    0.43353   0.70559   0.59036   1.000
    O761    O    0.84902   0.52412   0.60321   1.000
    O762    O    0.48647   0.71385   0.59337   1.000
    O763    O    0.42404   0.73377   0.62169   1.000
    O764    O    0.89045   0.46892   0.60815   1.000
    O765    O    0.30008   0.56573   0.63930   1.000
    O766    O    0.14497   0.54919   0.64126   1.000
    O767    O    0.81535   0.49547   0.65320   1.000
    O768    O    0.10306   0.72253   0.64005   1.000
    O769    O    0.03731   0.73196   0.64741   1.000
    O770    O    0.05833   0.75756   0.66581   1.000
    O771    O    0.37996   0.58483   0.69178   1.000
    O772    O    0.23310   0.56708   0.69197   1.000
    O773    O    0.31398   0.57499   0.69280   1.000
    O774    O    0.15476   0.55890   0.69306   1.000
    O775    O    0.07307   0.54932   0.69618   1.000
    O776    O    0.44298   0.08532   0.69377   1.000
    O777    O    0.99932   0.55104   0.69824   1.000
    O778    O    0.44547   0.03556   0.69685   1.000
    O779    O    0.44862   0.97999   0.70284   1.000
    O780    O    0.68757   0.57531   0.69871   1.000
    O781    O    0.86012   0.90960   0.70555   1.000
    O782    O    0.73537   0.52347   0.69999   1.000
    O783    O    0.78315   0.46539   0.70629   1.000
    O784    O    0.05415   0.45486   0.71922   1.000
    O785    O    0.45128   0.93024   0.71062   1.000
    O786    O    0.17346   0.86007   0.72295   1.000
    O787    O    0.79905   0.90648   0.71377   1.000
    O788    O    0.82092   0.41330   0.71629   1.000
    O789    O    0.16963   0.56783   0.73687   1.000
    O790    O    0.13524   0.98786   0.72938   1.000
    O791    O    0.44799   0.06380   0.74199   1.000
    O792    O    0.36563   0.54913   0.73138   1.000
    O793    O    0.31823   0.61181   0.73406   1.000
    O794    O    0.65967   0.55043   0.74554   1.000
    O795    O    0.02743   0.50912   0.72811   1.000
    O796    O    0.98990   0.57048   0.74520   1.000
    O797    O    0.40669   0.49544   0.73512   1.000
    O798    O    0.22972   0.85272   0.73248   1.000
    O799    O    0.45477   0.95015   0.75418   1.000
    O800    O    0.19394   0.97869   0.73648   1.000
    O801    O    0.77875   0.03390   0.74194   1.000
    O802    O    0.84165   0.87824   0.73373   1.000
    O803    O    0.80497   0.92923   0.75482   1.000
    O804    O    0.75343   0.43676   0.75792   1.000
    O805    O    0.27632   0.66569   0.74273   1.000
    O806    O    0.71882   0.03007   0.74642   1.000
    O807    O    0.97340   0.93205   0.76348   1.000
    O808    O    0.99616   0.46954   0.75349   1.000
    O809    O    0.05528   0.46587   0.75815   1.000
    O810    O    0.18317   0.83435   0.75804   1.000
    O811    O    0.16281   0.88825   0.76664   1.000
    O812    O    0.13638   0.00466   0.76548   1.000
    O813    O    0.14511   0.95095   0.76926   1.000
    O814    O    0.40930   0.52140   0.76424   1.000
    O815    O    0.35276   0.51215   0.77118   1.000
    O816    O    0.31562   0.64729   0.76830   1.000
    O817    O    0.25721   0.63992   0.77774   1.000
    O818    O    0.95454   0.62147   0.76625   1.000
    O819    O    0.76412   0.99059   0.77191   1.000
    O820    O    0.72772   0.04485   0.78079   1.000
    O821    O    0.45065   0.08717   0.78369   1.000
    O822    O    0.45462   0.03509   0.79361   1.000
    O823    O    0.92033   0.59313   0.78619   1.000
    O824    O    0.97622   0.59018   0.79446   1.000
    O825    O    0.59294   0.57044   0.78904   1.000
    O826    O    0.63185   0.52068   0.79690   1.000
    O827    O    0.74810   0.94862   0.80172   1.000
    O828    O    0.81792   0.95051   0.80394   1.000
    O829    O    0.45825   0.97702   0.79981   1.000
    O830    O    0.46068   0.92520   0.80101   1.000
    O831    O    0.08071   0.92511   0.80776   1.000
    O832    O    0.15538   0.91531   0.80893   1.000
    O833    O    0.67782   0.46509   0.80298   1.000
    O834    O    0.72167   0.41531   0.80608   1.000
    O835    O    0.90593   0.94103   0.80721   1.000
    O836    O    0.99122   0.93293   0.80844   1.000
    O837    O    0.97691   0.74230   0.83455   1.000
    O838    O    0.46368   0.00492   0.84671   1.000
    O839    O    0.59063   0.49406   0.88186   1.000
    O840    O    0.83474   0.95084   0.85892   1.000
    O841    O    0.00418   0.93443   0.86116   1.000
    O842    O    0.91693   0.76779   0.85295   1.000
    O843    O    0.27976   0.76619   0.87853   1.000
    O844    O    0.96584   0.77733   0.86037   1.000
    O845    O    0.94847   0.73359   0.88844   1.000
    O846    O    0.18353   0.46156   0.89211   1.000
    O847    O    0.46728   0.03138   0.89192   1.000
    O848    O    0.47598   0.97615   0.89666   1.000
    O849    O    0.53742   0.28364   0.91294   1.000
    O850    O    0.52787   0.19378   0.91479   1.000
    O851    O    0.75990   0.96237   0.91239   1.000
    O852    O    0.84791   0.95257   0.91286   1.000
    O853    O    0.00979   0.93628   0.91005   1.000
    O854    O    0.93205   0.94425   0.91387   1.000
    O855    O    0.11058   0.07853   0.92745   1.000
    O856    O    0.61384   0.69897   0.92512   1.000
    O857    O    0.47861   0.05550   0.94955   1.000
    O858    O    0.29422   0.78618   0.90633   1.000
    O859    O    0.23007   0.79440   0.90984   1.000
    O860    O    0.26554   0.74519   0.92953   1.000
    O861    O    0.61828   0.78933   0.93016   1.000
    O862    O    0.92898   0.69126   0.91538   1.000
    O863    O    0.18876   0.42765   0.92132   1.000
    O864    O    0.12981   0.46034   0.92758   1.000
    O865    O    0.18689   0.47377   0.93996   1.000
    O866    O    0.99386   0.69240   0.92527   1.000
    O867    O    0.90371   0.73085   0.95113   1.000
    O868    O    0.21611   0.96001   0.94771   1.000
    O869    O    0.47723   0.52238   0.93476   1.000
    O870    O    0.36825   0.55938   0.94606   1.000
    O871    O    0.09423   0.73663   0.93237   1.000
    O872    O    0.67579   0.00109   0.93612   1.000
    O873    O    0.68547   0.94588   0.94060   1.000
    O874    O    0.07553   0.69169   0.93317   1.000
    O875    O    0.06107   0.63899   0.93457   1.000
    O876    O    0.82331   0.51328   0.94865   1.000
    O877    O    0.05361   0.59013   0.93635   1.000
    O878    O    0.15272   0.69290   0.94135   1.000
    O879    O    0.51146   0.24196   0.93631   1.000
    O880    O    0.48953   0.29358   0.96502   1.000
    O881    O    0.48079   0.19685   0.96455   1.000
    O882    O    0.77252   0.28059   0.95475   1.000
    O883    O    0.12336   0.58628   0.94438   1.000
    O884    O    0.53382   0.44952   0.94451   1.000
    O885    O    0.49856   0.39184   0.96869   1.000
    O886    O    0.56952   0.04230   0.96854   1.000
    O887    O    0.30298   0.69829   0.94900   1.000
    O888    O    0.24451   0.48335   0.95284   1.000
    O889    O    0.87876   0.51571   0.95426   1.000
    O890    O    0.23129   0.69614   0.95083   1.000
    O891    O    0.21409   0.64117   0.95115   1.000
    O892    O    0.55601   0.54114   0.94785   1.000
    O893    O    0.61156   0.46860   0.95762   1.000
    O894    O    0.59493   0.74579   0.95007   1.000
    O895    O    0.19919   0.58726   0.95278   1.000
    O896    O    0.18583   0.53060   0.95575   1.000
    O897    O    0.05784   0.07228   0.96014   1.000
    O898    O    0.07618   0.10779   0.96129   1.000
    O899    O    0.12719   0.06000   0.97361   1.000
    O900    O    0.27743   0.58767   0.96262   1.000
    O901    O    0.82372   0.55228   0.96008   1.000
    O902    O    0.81255   0.24175   0.96577   1.000
    O903    O    0.74882   0.24628   0.96956   1.000
    O904    O    0.19761   0.04720   0.98321   1.000
    O905    O    0.18147   0.00142   0.98380   1.000
    O906    O    0.16683   0.95424   0.98431   1.000
    O907    O    0.22785   0.94868   0.98658   1.000
    O908    O    0.82724   0.76357   0.97889   1.000
    O909    O    0.87679   0.77065   0.98813   1.000
    O910    O    0.47262   0.11803   0.99375   1.000
    O911    O    0.46859   0.34667   0.99519   1.000
    O912    O    0.49999   0.00000   0.99996   1.000
    O913    O    0.99999   0.50000   0.50000   1.000
    O914    O    0.50000   0.00000   0.50000   1.000
    O915    O    0.49999   0.50001   0.00000   1.000
loop_
    _geom_bond_atom_site_label_1
    _geom_bond_atom_site_label_2
    _geom_bond_distance
    _geom_bond_site_symmetry_2
    _ccdc_geom_bond_type
    C96    O440      0.58124      .   S
    C301   O440      0.58124      .   S
    C11    O441      0.56006      .   S
    C232   O441      0.56006      .   S
    C306   O442      0.73498      .   S
    C307   O442      0.73498      .   S
    C306   O443      0.64574      .   S
    C421   O443      0.64574      .   S
    C306   O444      0.64492  1_554   S
    C423   O444      0.64492      .   S
    C0     O445      1.31733      .   S
    C403   O445      1.31733      .   S
    C0     O446      1.04992      .   S
    C426   O446      1.04992      .   S
    C0     O447      1.04436      .   S
    C409   O447      1.04436      .   S
    C0     O448      1.04628  1_554   S
    C427   O448      1.04628      .   S
    C0     O449      1.06061  1_554   S
    C408   O449      1.06061      .   S
    C307   O450      0.70719      .   S
    C308   O450      0.70719      .   S
    C307   O451      0.69852  1_554   S
    C309   O451      0.69852      .   S
    C17    O452      0.55002      .   S
    C232   O452      0.55002      .   S
    C231   O453      0.77045      .   S
    C232   O453      0.77045  1_545   S
    C231   O454      0.55161      .   S
    C10    O454      0.55161      .   S
    C231   O455      0.76676      .   S
    C233   O455      0.76676      .   S
    C231   O456      0.76197  1_554   S
    C226   O456      0.76197      .   S
    C403   O457      0.67455      .   S
    C310   O457      0.67455      .   S
    C403   O458      0.67444  1_554   S
    C311   O458      0.67444      .   S
    C301   O459      0.54944      .   S
    C113   O459      0.54944      .   S
    C301   O460      0.76903      .   S
    C300   O460      0.76903      .   S
    C301   O461      0.54933  1_554   S
    C97    O461      0.54933      .   S
    C232   O462      0.55007      .   S
    C9     O462      0.55007      .   S
    C205   O463      0.54940      .   S
    C389   O463      0.54940  1_556   S
    C393   O464      0.54995      .   S
    C214   O464      0.54995      .   S
    C393   O465      0.55019      .   S
    C216   O465      0.55019      .   S
    C393   O466      0.54912      .   S
    C215   O466      0.54912      .   S
    C393   O467      0.77020  1_554   S
    C391   O467      0.77020      .   S
    C290   O468      0.74671      .   S
    C291   O468      0.74671      .   S
    C290   O469      0.64245      .   S
    C420   O469      0.64245      .   S
    C290   O470      0.64462  1_554   S
    C422   O470      0.64462      .   S
    C13    O471      0.54935      .   S
    C233   O471      0.54935      .   S
    C438   O472      1.04965      .   S
    C3     O472      1.04965      .   S
    C438   O473      0.64461      .   S
    C378   O473      0.64461  1_556   S
    C18    O474      0.54897      .   S
    C233   O474      0.54897      .   S
    C386   O475      0.55039      .   S
    C198   O475      0.55039      .   S
    C386   O476      0.55005      .   S
    C206   O476      0.55005      .   S
    C386   O477      0.54992      .   S
    C200   O477      0.54992      .   S
    C386   O478      0.76829  1_554   S
    C385   O478      0.76829      .   S
    C297   O479      0.76214      .   S
    C292   O479      0.76214      .   S
    C297   O480      0.55161      .   S
    C91    O480      0.55161      .   S
    C297   O481      0.76677      .   S
    C299   O481      0.76677      .   S
    C297   O482      0.77014      .   S
    C298   O482      0.77014  1_556   S
    C291   O483      0.70484      .   S
    C292   O483      0.70484      .   S
    C291   O484      0.70489      .   S
    C296   O484      0.70489      .   S
    C233   O485      0.54967      .   S
    C19    O485      0.54967      .   S
    C303   O486      0.76173      .   S
    C296   O486      0.76173      .   S
    C303   O487      0.55129      .   S
    C102   O487      0.55129      .   S
    C303   O488      0.76695      .   S
    C304   O488      0.76695      .   S
    C303   O489      0.77038      .   S
    C305   O489      0.77038  1_556   S
    C399   O490      0.69488      .   S
    C397   O490      0.69488      .   S
    C399   O491      0.54603      .   S
    C220   O491      0.54603      .   S
    C399   O492      0.67445      .   S
    C407   O492      0.67445  1_556   S
    C424   O493      0.64241      .   S
    C312   O493      0.64241      .   S
    C424   O494      1.06076      .   S
    C4     O494      1.06076  1_556   S
    C292   O495      0.69978      .   S
    C293   O495      0.69978      .   S
    C397   O496      0.54415      .   S
    C218   O496      0.54415      .   S
    C397   O497      0.70234      .   S
    C395   O497      0.70234  1_556   S
    C439   O498      1.04699      .   S
    C3     O498      1.04699      .   S
    C439   O499      0.64441      .   S
    C394   O499      0.64441  1_556   S
    C3     O500      1.04442      .   S
    C421   O500      1.04442      .   S
    C3     O501      1.06027      .   S
    C420   O501      1.06027      .   S
    C3     O502      1.31965      .   S
    C401   O502      1.31965      .   S
    C296   O503      0.69910      .   S
    C295   O503      0.69910      .   S
    C426   O504      0.64498      .   S
    C312   O504      0.64498  1_545   S
    C293   O505      0.54569      .   S
    C93    O505      0.54569      .   S
    C293   O506      0.70003      .   S
    C294   O506      0.70003      .   S
    C310   O507      0.69426      .   S
    C308   O507      0.69426      .   S
    C310   O508      0.54601      .   S
    C111   O508      0.54601      .   S
    C99    O509      0.54968      .   S
    C299   O509      0.54968      .   S
    C308   O510      0.54425      .   S
    C109   O510      0.54425      .   S
    C295   O511      0.70052      .   S
    C294   O511      0.70052      .   S
    C295   O512      0.54545      .   S
    C89    O512      0.54545      .   S
    C314   O513      0.70011      .   S
    C315   O513      0.70011      .   S
    C314   O514      0.70483      .   S
    C313   O514      0.70483      .   S
    C314   O515      0.76188      .   S
    C319   O515      0.76188  1_556   S
    C294   O516      0.76015  1_655   S
    C300   O516      0.76015      .   S
    C312   O517      0.74673      .   S
    C313   O517      0.74673      .   S
    C120   O518      0.54560      .   S
    C315   O518      0.54560  1_455   S
    C100   O519      0.54962      .   S
    C299   O519      0.54962      .   S
    C300   O520      0.55182      .   S
    C95    O520      0.55182      .   S
    C300   O521      0.76778      .   S
    C302   O521      0.76778      .   S
    C299   O522      0.54932      .   S
    C94    O522      0.54932      .   S
    C104   O523      0.54966      .   S
    C304   O523      0.54966      .   S
    C411   O524      0.64554      .   S
    C240   O524      0.64554  1_565   S
    C411   O525      1.04712      .   S
    C4     O525      1.04712  1_556   S
    C103   O526      0.54978      .   S
    C304   O526      0.54978      .   S
    C304   O527      0.54932      .   S
    C105   O527      0.54932      .   S
    C409   O528      0.64531      .   S
    C240   O528      0.64531      .   S
    C315   O529      0.69994  1_455   S
    C316   O529      0.69994      .   S
    C313   O530      0.70495      .   S
    C318   O530      0.70495      .   S
    C240   O531      0.73594      .   S
    C241   O531      0.73594      .   S
    C101   O532      0.54956      .   S
    C302   O532      0.54956      .   S
    C302   O533      0.54981      .   S
    C114   O533      0.54981      .   S
    C302   O534      0.54928      .   S
    C115   O534      0.54928  1_655   S
    C122   O535      0.55178      .   S
    C322   O535      0.55178      .   S
    C316   O536      0.70051  1_655   S
    C317   O536      0.70051      .   S
    C316   O537      0.75993      .   S
    C322   O537      0.75993      .   S
    C318   O538      0.69940      .   S
    C317   O538      0.69940      .   S
    C318   O539      0.76169      .   S
    C325   O539      0.76169      .   S
    C57    O540      0.54608      .   S
    C266   O540      0.54608      .   S
    C129   O541      0.55130      .   S
    C325   O541      0.55130      .   S
    C401   O542      0.67472      .   S
    C266   O542      0.67472      .   S
    C401   O543      0.67494      .   S
    C267   O543      0.67494      .   S
    C29    O544      0.54454      .   S
    C243   O544      0.54454      .   S
    C158   O545      0.54973      .   S
    C348   O545      0.54973      .   S
    C241   O546      0.70264  1_565   S
    C243   O546      0.70264      .   S
    C241   O547      0.70229      .   S
    C242   O547      0.70229      .   S
    C134   O548      0.54918      .   S
    C327   O548      0.54918      .   S
    C58    O549      0.54594      .   S
    C267   O549      0.54594      .   S
    C155   O550      0.54953      .   S
    C346   O550      0.54953      .   S
    C157   O551      0.54981      .   S
    C348   O551      0.54981      .   S
    C28    O552      0.54428      .   S
    C242   O552      0.54428      .   S
    C150   O553      0.54969      .   S
    C345   O553      0.54969      .   S
    C317   O554      0.54529      .   S
    C116   O554      0.54529      .   S
    C266   O555      0.69422      .   S
    C264   O555      0.69422      .   S
    C322   O556      0.76900      .   S
    C323   O556      0.76900      .   S
    C322   O557      0.76772      .   S
    C324   O557      0.76772      .   S
    C243   O558      0.69407      .   S
    C245   O558      0.69407      .   S
    C325   O559      0.76988      .   S
    C327   O559      0.76988  1_565   S
    C325   O560      0.76699      .   S
    C326   O560      0.76699      .   S
    C124   O561      0.54967      .   S
    C323   O561      0.54967  1_545   S
    C168   O562      0.54977      .   S
    C346   O562      0.54977      .   S
    C267   O563      0.69515      .   S
    C265   O563      0.69515      .   S
    C167   O564      0.54942      .   S
    C345   O564      0.54942      .   S
    C162   O565      0.55023      .   S
    C349   O565      0.55023      .   S
    C348   O566      0.54926      .   S
    C159   O566      0.54926      .   S
    C348   O567      0.76693      .   S
    C347   O567      0.76693  1_655   S
    C242   O568      0.69431      .   S
    C244   O568      0.69431      .   S
    C142   O569      0.54933      .   S
    C324   O569      0.54933      .   S
    C160   O570      0.55016      .   S
    C349   O570      0.55016  1_655   S
    C143   O571      0.54534      .   S
    C339   O571      0.54534      .   S
    C327   O572      0.54991      .   S
    C133   O572      0.54991      .   S
    C327   O573      0.55018      .   S
    C135   O573      0.55018      .   S
    C346   O574      0.54937      .   S
    C169   O574      0.54937      .   S
    C346   O575      0.76777      .   S
    C344   O575      0.76777      .   S
    C345   O576      0.54960      .   S
    C151   O576      0.54960      .   S
    C345   O577      0.76905      .   S
    C344   O577      0.76905      .   S
    C323   O578      0.54941      .   S
    C140   O578      0.54941      .   S
    C323   O579      0.55066      .   S
    C123   O579      0.55066      .   S
    C324   O580      0.54982      .   S
    C141   O580      0.54982      .   S
    C324   O581      0.54957      .   S
    C128   O581      0.54957      .   S
    C132   O582      0.54929      .   S
    C326   O582      0.54929      .   S
    C349   O583      0.76980      .   S
    C347   O583      0.76980      .   S
    C349   O584      0.54911      .   S
    C161   O584      0.54911      .   S
    C264   O585      0.54432      .   S
    C55    O585      0.54432      .   S
    C264   O586      0.70239      .   S
    C263   O586      0.70239      .   S
    C326   O587      0.54979      .   S
    C130   O587      0.54979      .   S
    C326   O588      0.54968      .   S
    C131   O588      0.54968      .   S
    C245   O589      0.54642      .   S
    C31    O589      0.54642      .   S
    C245   O590      0.67509      .   S
    C400   O590      0.67509  1_565   S
    C347   O591      0.55142  1_655   S
    C156   O591      0.55142      .   S
    C347   O592      0.76167      .   S
    C340   O592      0.76167      .   S
    C265   O593      0.70257      .   S
    C263   O593      0.70257      .   S
    C265   O594      0.54452      .   S
    C56    O594      0.54452      .   S
    C344   O595      0.75993      .   S
    C338   O595      0.75993      .   S
    C344   O596      0.55181      .   S
    C149   O596      0.55181      .   S
    C244   O597      0.67451      .   S
    C400   O597      0.67451      .   S
    C244   O598      0.54605      .   S
    C30    O598      0.54605      .   S
    C339   O599      0.69938      .   S
    C340   O599      0.69938      .   S
    C339   O600      0.70028      .   S
    C338   O600      0.70028      .   S
    C88    O601      0.54957      .   S
    C280   O601      0.54957      .   S
    C263   O602      0.73600      .   S
    C262   O602      0.73600      .   S
    C400   O603      1.31687      .   S
    C2     O603      1.31687      .   S
    C340   O604      0.70493      .   S
    C335   O604      0.70493      .   S
    C338   O605      0.69996      .   S
    C337   O605      0.69996      .   S
    C87    O606      0.54981      .   S
    C280   O606      0.54981      .   S
    C78    O607      0.54931      .   S
    C282   O607      0.54931      .   S
    C280   O608      0.54955      .   S
    C74    O608      0.54955      .   S
    C280   O609      0.76772      .   S
    C278   O609      0.76772      .   S
    C67    O610      0.54932      .   S
    C277   O610      0.54932      .   S
    C262   O611      0.64541      .   S
    C413   O611      0.64541      .   S
    C262   O612      0.64536      .   S
    C415   O612      0.64536      .   S
    C82    O613      0.54459      .   S
    C286   O613      0.54459      .   S
    C84    O614      0.54607      .   S
    C288   O614      0.54607      .   S
    C335   O615      0.74669      .   S
    C334   O615      0.74669      .   S
    C335   O616      0.70482      .   S
    C336   O616      0.70482      .   S
    C337   O617      0.54546      .   S
    C147   O617      0.54546      .   S
    C337   O618      0.70013      .   S
    C336   O618      0.70013      .   S
    C46    O619      0.54966      .   S
    C255   O619      0.54966      .   S
    C191   O620      0.54456      .   S
    C375   O620      0.54456      .   S
    C413   O621      1.04435      .   S
    C1     O621      1.04435  1_655   S
    C282   O622      0.54984      .   S
    C76    O622      0.54984      .   S
    C282   O623      0.54969      .   S
    C77    O623      0.54969      .   S
    C282   O624      0.76690      .   S
    C281   O624      0.76690      .   S
    C193   O625      0.54602      .   S
    C377   O625      0.54602      .   S
    C68    O626      0.53925  1_455   S
    C278   O626      0.53925      .   S
    C415   O627      1.04739      .   S
    C5     O627      1.04739      .   S
    C277   O628      0.54960      .   S
    C73    O628      0.54960      .   S
    C277   O629      0.54993      .   S
    C72    O629      0.54993  1_455   S
    C277   O630      0.76677      .   S
    C275   O630      0.76677      .   S
    C278   O631      0.75993      .   S
    C272   O631      0.75993      .   S
    C278   O632      0.76903      .   S
    C279   O632      0.76903      .   S
    C36    O633      0.55003      .   S
    C254   O633      0.55003      .   S
    C416   O634      1.06111      .   S
    C2     O634      1.06111  1_565   S
    C416   O635      0.64259      .   S
    C268   O635      0.64259      .   S
    C62    O636      0.54537      .   S
    C273   O636      0.54537      .   S
    C334   O637      0.64487      .   S
    C430   O637      0.64487      .   S
    C334   O638      0.64254      .   S
    C428   O638      0.64254      .   S
    C272   O639      0.70028      .   S
    C273   O639      0.70028      .   S
    C272   O640      0.69994      .   S
    C271   O640      0.69994      .   S
    C336   O641      0.76218      .   S
    C341   O641      0.76218      .   S
    C173   O642      0.55074      .   S
    C364   O642      0.55074      .   S
    C66    O643      0.54545      .   S
    C271   O643      0.54545      .   S
    C273   O644      0.69940      .   S
    C274   O644      0.69940      .   S
    C286   O645      0.69435      .   S
    C288   O645      0.69435      .   S
    C286   O646      0.70229      .   S
    C285   O646      0.70229      .   S
    C188   O647      0.54913      .   S
    C371   O647      0.54913      .   S
    C288   O648      0.67451      .   S
    C402   O648      0.67451      .   S
    C271   O649      0.70011      .   S
    C270   O649      0.70011      .   S
    C430   O650      1.04950      .   S
    C1     O650      1.04950      .   S
    C417   O651      1.04431      .   S
    C2     O651      1.04431      .   S
    C417   O652      0.64524      .   S
    C284   O652      0.64524      .   S
    C75    O653      0.55130      .   S
    C281   O653      0.55130      .   S
    C64    O654      0.55160      .   S
    C275   O654      0.55160      .   S
    C179   O655      0.54999      .   S
    C364   O655      0.54999      .   S
    C274   O656      0.76170      .   S
    C281   O656      0.76170      .   S
    C274   O657      0.70488      .   S
    C269   O657      0.70488      .   S
    C2     O658      1.04682  1_565   S
    C435   O658      1.04682      .   S
    C2     O659      1.04930      .   S
    C434   O659      1.04930      .   S
    C375   O660      0.69490      .   S
    C377   O660      0.69490      .   S
    C375   O661      0.70257      .   S
    C373   O661      0.70257      .   S
    C435   O662      0.64555      .   S
    C372   O662      0.64555      .   S
    C270   O663      0.70483      .   S
    C269   O663      0.70483      .   S
    C270   O664      0.76225      .   S
    C275   O664      0.76225  1_565   S
    C428   O665      1.06056      .   S
    C5     O665      1.06056  1_455   S
    C377   O666      0.67423      .   S
    C406   O666      0.67423      .   S
    C281   O667      0.76978      .   S
    C283   O667      0.76978      .   S
    C269   O668      0.74682      .   S
    C268   O668      0.74682      .   S
    C255   O669      0.54968      .   S
    C45    O669      0.54968      .   S
    C255   O670      0.54936      .   S
    C40    O670      0.54936      .   S
    C255   O671      0.76675      .   S
    C253   O671      0.76675      .   S
    C171   O672      0.55011      .   S
    C364   O672      0.55011      .   S
    C189   O673      0.55018      .   S
    C371   O673      0.55018      .   S
    C275   O674      0.77035      .   S
    C276   O674      0.77035      .   S
    C364   O675      0.77035      .   S
    C363   O675      0.77035      .   S
    C187   O676      0.54994      .   S
    C371   O676      0.54994      .   S
    C434   O677      0.64491      .   S
    C356   O677      0.64491      .   S
    C268   O678      0.64543      .   S
    C418   O678      0.64543      .   S
    C371   O679      0.76987      .   S
    C369   O679      0.76987      .   S
    C178   O680      0.54958      .   S
    C367   O680      0.54958      .   S
    C37    O681      0.55155      .   S
    C253   O681      0.55155      .   S
    C86    O682      0.54941      .   S
    C279   O682      0.54941      .   S
    C254   O683      0.77039      .   S
    C253   O683      0.77039      .   S
    C254   O684      0.55003      .   S
    C44    O684      0.55003      .   S
    C254   O685      0.54837      .   S
    C38    O685      0.54837      .   S
    C279   O686      0.54971      .   S
    C69    O686      0.54971      .   S
    C279   O687      0.54958      .   S
    C70    O687      0.54958      .   S
    C402   O688      1.32048      .   S
    C1     O688      1.32048      .   S
    C402   O689      0.67454      .   S
    C289   O689      0.67454      .   S
    C253   O690      0.76219      .   S
    C248   O690      0.76219      .   S
    C285   O691      0.73598      .   S
    C284   O691      0.73598      .   S
    C285   O692      0.70266      .   S
    C287   O692      0.70266      .   S
    C1     O693      1.06062  1_655   S
    C412   O693      1.06062      .   S
    C1     O694      1.04745      .   S
    C431   O694      1.04745      .   S
    C284   O695      0.64547      .   S
    C419   O695      0.64547      .   S
    C146   O696      0.54840      .   S
    C342   O696      0.54840      .   S
    C372   O697      0.73597      .   S
    C373   O697      0.73597      .   S
    C372   O698      0.64534      .   S
    C433   O698      0.64534      .   S
    C5     O699      1.32044      .   S
    C406   O699      1.32044      .   S
    C5     O700      1.04958      .   S
    C414   O700      1.04958      .   S
    C5     O701      1.04442  1_455   S
    C429   O701      1.04442      .   S
    C373   O702      0.70232      .   S
    C374   O702      0.70232      .   S
    C152   O703      0.55004      .   S
    C342   O703      0.55004      .   S
    C177   O704      0.54970      .   S
    C367   O704      0.54970      .   S
    C341   O705      0.77040      .   S
    C342   O705      0.77040      .   S
    C341   O706      0.55161      .   S
    C145   O706      0.55161      .   S
    C341   O707      0.76676      .   S
    C343   O707      0.76676      .   S
    C406   O708      0.67490      .   S
    C376   O708      0.67490      .   S
    C367   O709      0.54938      .   S
    C194   O709      0.54938      .   S
    C367   O710      0.76903      .   S
    C366   O710      0.76903      .   S
    C342   O711      0.55013      .   S
    C144   O711      0.55013      .   S
    C283   O712      0.54994      .   S
    C79    O712      0.54994      .   S
    C283   O713      0.55019      .   S
    C81    O713      0.55019      .   S
    C283   O714      0.54919      .   S
    C80    O714      0.54919      .   S
    C356   O715      0.74676      .   S
    C357   O715      0.74676      .   S
    C356   O716      0.64239      .   S
    C432   O716      0.64239      .   S
    C148   O717      0.54938      .   S
    C343   O717      0.54938      .   S
    C418   O718      1.04931      .   S
    C6     O718      1.04931      .   S
    C153   O719      0.54968      .   S
    C343   O719      0.54968      .   S
    C276   O720      0.55011      .   S
    C63    O720      0.55011      .   S
    C276   O721      0.55006      .   S
    C71    O721      0.55006      .   S
    C276   O722      0.54837      .   S
    C65    O722      0.54837      .   S
    C363   O723      0.76123  1_545   S
    C358   O723      0.76123      .   S
    C363   O724      0.55166      .   S
    C172   O724      0.55166      .   S
    C363   O725      0.76677      .   S
    C365   O725      0.76677      .   S
    C343   O726      0.54956      .   S
    C154   O726      0.54956      .   S
    C357   O727      0.70689      .   S
    C358   O727      0.70689      .   S
    C357   O728      0.70488      .   S
    C362   O728      0.70488      .   S
    C369   O729      0.76170      .   S
    C362   O729      0.76170      .   S
    C369   O730      0.55128      .   S
    C183   O730      0.55128      .   S
    C369   O731      0.76692      .   S
    C370   O731      0.76692      .   S
    C289   O732      0.69489      .   S
    C287   O732      0.69489      .   S
    C289   O733      0.54602      .   S
    C85    O733      0.54602      .   S
    C358   O734      0.69909      .   S
    C359   O734      0.69909      .   S
    C412   O735      0.64251      .   S
    C246   O735      0.64251      .   S
    C419   O736      1.04680      .   S
    C6     O736      1.04680  1_545   S
    C287   O737      0.54454      .   S
    C83    O737      0.54454      .   S
    C6     O738      1.04431      .   S
    C433   O738      1.04431      .   S
    C6     O739      1.06116  1_545   S
    C432   O739      1.06116      .   S
    C6     O740      1.31697      .   S
    C404   O740      1.31697      .   S
    C362   O741      0.69940      .   S
    C361   O741      0.69940      .   S
    C414   O742      0.64487      .   S
    C246   O742      0.64487      .   S
    C359   O743      0.54536      .   S
    C174   O743      0.54536      .   S
    C359   O744      0.69999      .   S
    C360   O744      0.69999      .   S
    C376   O745      0.69434      .   S
    C374   O745      0.69434      .   S
    C376   O746      0.54608      .   S
    C192   O746      0.54608      .   S
    C180   O747      0.54992  1_655   S
    C365   O747      0.54992      .   S
    C374   O748      0.54430      .   S
    C190   O748      0.54430      .   S
    C361   O749      0.70026      .   S
    C360   O749      0.70026      .   S
    C361   O750      0.54538      .   S
    C170   O750      0.54538      .   S
    C248   O751      0.70014      .   S
    C249   O751      0.70014      .   S
    C248   O752      0.70485      .   S
    C247   O752      0.70485      .   S
    C360   O753      0.75994      .   S
    C366   O753      0.75994      .   S
    C246   O754      0.74675      .   S
    C247   O754      0.74675      .   S
    C181   O755      0.54960      .   S
    C365   O755      0.54960      .   S
    C39    O756      0.54545      .   S
    C249   O756      0.54545      .   S
    C366   O757      0.55182      .   S
    C176   O757      0.55182  1_655   S
    C366   O758      0.76780      .   S
    C368   O758      0.76780      .   S
    C365   O759      0.54932      .   S
    C175   O759      0.54932      .   S
    C185   O760      0.54973      .   S
    C370   O760      0.54973      .   S
    C431   O761      0.64535      .   S
    C350   O761      0.64535      .   S
    C184   O762      0.54978      .   S
    C370   O762      0.54978      .   S
    C370   O763      0.54930      .   S
    C186   O763      0.54930      .   S
    C429   O764      0.64540      .   S
    C350   O764      0.64540      .   S
    C249   O765      0.69996      .   S
    C250   O765      0.69996      .   S
    C247   O766      0.70484      .   S
    C252   O766      0.70484      .   S
    C350   O767      0.73600      .   S
    C351   O767      0.73600      .   S
    C182   O768      0.54954      .   S
    C368   O768      0.54954      .   S
    C368   O769      0.54983      .   S
    C195   O769      0.54983      .   S
    C368   O770      0.54929      .   S
    C196   O770      0.54929      .   S
    C41    O771      0.55180      .   S
    C256   O771      0.55180      .   S
    C250   O772      0.70027      .   S
    C251   O772      0.70027      .   S
    C250   O773      0.75994      .   S
    C256   O773      0.75994      .   S
    C252   O774      0.69938      .   S
    C251   O774      0.69938      .   S
    C252   O775      0.76169      .   S
    C259   O775      0.76169      .   S
    C138   O776      0.54657      .   S
    C332   O776      0.54657      .   S
    C48    O777      0.55151      .   S
    C259   O777      0.55151  1_455   S
    C404   O778      0.67453      .   S
    C332   O778      0.67453      .   S
    C404   O779      0.67464  1_545   S
    C333   O779      0.67464      .   S
    C164   O780      0.54456      .   S
    C353   O780      0.54456      .   S
    C23    O781      0.54996      .   S
    C238   O781      0.54996      .   S
    C351   O782      0.70258      .   S
    C353   O782      0.70258      .   S
    C351   O783      0.70231      .   S
    C352   O783      0.70231      .   S
    C53    O784      0.54913      .   S
    C261   O784      0.54913      .   S
    C139   O785      0.54597      .   S
    C333   O785      0.54597      .   S
    C20    O786      0.54957      .   S
    C236   O786      0.54957      .   S
    C22    O787      0.54980      .   S
    C238   O787      0.54980      .   S
    C163   O788      0.54430      .   S
    C352   O788      0.54430      .   S
    C251   O789      0.54545      .   S
    C35    O789      0.54545      .   S
    C15    O790      0.54964      .   S
    C235   O790      0.54964      .   S
    C332   O791      0.69431      .   S
    C330   O791      0.69431      .   S
    C256   O792      0.76905      .   S
    C257   O792      0.76905      .   S
    C256   O793      0.76777      .   S
    C258   O793      0.76777      .   S
    C353   O794      0.69493      .   S
    C355   O794      0.69493      .   S
    C259   O795      0.76980      .   S
    C261   O795      0.76980      .   S
    C259   O796      0.76673  1_455   S
    C260   O796      0.76673      .   S
    C43    O797      0.54961      .   S
    C257   O797      0.54961      .   S
    C33    O798      0.54987      .   S
    C236   O798      0.54987      .   S
    C333   O799      0.69491      .   S
    C331   O799      0.69491      .   S
    C32    O800      0.54941      .   S
    C235   O800      0.54941      .   S
    C27    O801      0.55019      .   S
    C239   O801      0.55019      .   S
    C238   O802      0.54930      .   S
    C24    O802      0.54930      .   S
    C238   O803      0.76698      .   S
    C237   O803      0.76698      .   S
    C352   O804      0.69430      .   S
    C354   O804      0.69430      .   S
    C61    O805      0.54931      .   S
    C258   O805      0.54931      .   S
    C25    O806      0.54991      .   S
    C239   O806      0.54991      .   S
    C8     O807      0.54539      .   S
    C229   O807      0.54539      .   S
    C261   O808      0.55016  1_455   S
    C52    O808      0.55016      .   S
    C261   O809      0.55022      .   S
    C54    O809      0.55022      .   S
    C236   O810      0.54929      .   S
    C34    O810      0.54929      .   S
    C236   O811      0.76774      .   S
    C234   O811      0.76774      .   S
    C235   O812      0.54965  1_565   S
    C16    O812      0.54965      .   S
    C235   O813      0.76903      .   S
    C234   O813      0.76903      .   S
    C257   O814      0.54941      .   S
    C59    O814      0.54941      .   S
    C257   O815      0.54970      .   S
    C42    O815      0.54970      .   S
    C258   O816      0.54933      .   S
    C60    O816      0.54933      .   S
    C258   O817      0.54953      .   S
    C47    O817      0.54953      .   S
    C51    O818      0.54935      .   S
    C260   O818      0.54935      .   S
    C239   O819      0.76988  1_545   S
    C237   O819      0.76988      .   S
    C239   O820      0.54917      .   S
    C26    O820      0.54917      .   S
    C330   O821      0.54429      .   S
    C136   O821      0.54429      .   S
    C330   O822      0.70228      .   S
    C329   O822      0.70228      .   S
    C260   O823      0.54984      .   S
    C49    O823      0.54984      .   S
    C260   O824      0.54992      .   S
    C50    O824      0.54992      .   S
    C355   O825      0.54600      .   S
    C166   O825      0.54600      .   S
    C355   O826      0.67457      .   S
    C405   O826      0.67457      .   S
    C237   O827      0.55109      .   S
    C21    O827      0.55109      .   S
    C237   O828      0.76170      .   S
    C230   O828      0.76170      .   S
    C331   O829      0.70265      .   S
    C329   O829      0.70265  1_545   S
    C331   O830      0.54454      .   S
    C137   O830      0.54454      .   S
    C234   O831      0.75991      .   S
    C228   O831      0.75991      .   S
    C234   O832      0.55179      .   S
    C14    O832      0.55179      .   S
    C354   O833      0.67452      .   S
    C405   O833      0.67452      .   S
    C354   O834      0.54606      .   S
    C165   O834      0.54606      .   S
    C229   O835      0.69939      .   S
    C230   O835      0.69939      .   S
    C229   O836      0.70043      .   S
    C228   O836      0.70043  1_455   S
    C223   O837      0.53513  1_455   S
    C390   O837      0.53513      .   S
    C329   O838      0.73593      .   S
    C328   O838      0.73593      .   S
    C405   O839      1.32048      .   S
    C7     O839      1.32048      .   S
    C230   O840      0.70485      .   S
    C225   O840      0.70485      .   S
    C228   O841      0.69993      .   S
    C227   O841      0.69993  1_655   S
    C222   O842      0.54981      .   S
    C390   O842      0.54981      .   S
    C213   O843      0.54933      .   S
    C392   O843      0.54933      .   S
    C390   O844      0.54952      .   S
    C209   O844      0.54952      .   S
    C390   O845      0.76777      .   S
    C388   O845      0.76777      .   S
    C202   O846      0.54942      .   S
    C387   O846      0.54942      .   S
    C328   O847      0.64532      .   S
    C425   O847      0.64532      .   S
    C328   O848      0.64553  1_545   S
    C427   O848      0.64553      .   S
    C217   O849      0.54432      .   S
    C396   O849      0.54432      .   S
    C219   O850      0.54610      .   S
    C398   O850      0.54610      .   S
    C225   O851      0.74673      .   S
    C224   O851      0.74673      .   S
    C225   O852      0.70484      .   S
    C226   O852      0.70484      .   S
    C227   O853      0.54569  1_655   S
    C12    O853      0.54569      .   S
    C227   O854      0.70010      .   S
    C226   O854      0.70010      .   S
    C127   O855      0.54958      .   S
    C321   O855      0.54958      .   S
    C110   O856      0.54456      .   S
    C309   O856      0.54456      .   S
    C425   O857      1.04352      .   S
    C4     O857      1.04352      .   S
    C392   O858      0.54623      .   S
    C211   O858      0.54623      .   S
    C392   O859      0.54971      .   S
    C212   O859      0.54971      .   S
    C392   O860      0.76656      .   S
    C391   O860      0.76656      .   S
    C112   O861      0.54597      .   S
    C311   O861      0.54597      .   S
    C203   O862      0.55183      .   S
    C388   O862      0.55183      .   S
    C387   O863      0.54958      .   S
    C208   O863      0.54958      .   S
    C387   O864      0.54968      .   S
    C207   O864      0.54968      .   S
    C387   O865      0.76677      .   S
    C385   O865      0.76677      .   S
    C388   O866      0.76015      .   S
    C382   O866      0.76015  1_455   S
    C388   O867      0.76896      .   S
    C389   O867      0.76896      .   S
    C117   O868      0.55017      .   S
    C320   O868      0.55017      .   S
    C436   O869      1.06027      .   S
    C7     O869      1.06027      .   S
    C436   O870      0.64245      .   S
    C378   O870      0.64245      .   S
    C197   O871      0.54538      .   S
    C383   O871      0.54538      .   S
    C224   O872      0.64497  1_565   S
    C410   O872      0.64497      .   S
    C224   O873      0.64239      .   S
    C408   O873      0.64239      .   S
    C382   O874      0.70025      .   S
    C383   O874      0.70025      .   S
    C382   O875      0.69994      .   S
    C381   O875      0.69994      .   S
    C92    O876      0.54838      .   S
    C298   O876      0.54838      .   S
    C201   O877      0.54543      .   S
    C381   O877      0.54543      .   S
    C383   O878      0.69944      .   S
    C384   O878      0.69944      .   S
    C396   O879      0.69428      .   S
    C398   O879      0.69428      .   S
    C396   O880      0.70229      .   S
    C395   O880      0.70229      .   S
    C398   O881      0.67449      .   S
    C407   O881      0.67449      .   S
    C107   O882      0.54863      .   S
    C305   O882      0.54863      .   S
    C381   O883      0.70012      .   S
    C380   O883      0.70012      .   S
    C437   O884      1.04441      .   S
    C7     O884      1.04441      .   S
    C437   O885      0.64540      .   S
    C394   O885      0.64540      .   S
    C410   O886      1.04975      .   S
    C4     O886      1.04975      .   S
    C210   O887      0.55134      .   S
    C391   O887      0.55134      .   S
    C199   O888      0.55160      .   S
    C385   O888      0.55160      .   S
    C98    O889      0.55001      .   S
    C298   O889      0.55001      .   S
    C384   O890      0.76145      .   S
    C391   O890      0.76145      .   S
    C384   O891      0.70489      .   S
    C379   O891      0.70489      .   S
    C7     O892      1.04679      .   S
    C423   O892      1.04679      .   S
    C7     O893      1.04964      .   S
    C422   O893      1.04964      .   S
    C309   O894      0.69486      .   S
    C311   O894      0.69486      .   S
    C380   O895      0.70484      .   S
    C379   O895      0.70484      .   S
    C380   O896      0.76214      .   S
    C385   O896      0.76214      .   S
    C321   O897      0.54969      .   S
    C126   O897      0.54969      .   S
    C321   O898      0.54915      .   S
    C121   O898      0.54915      .   S
    C321   O899      0.76683      .   S
    C319   O899      0.76683      .   S
    C379   O900      0.74671      .   S
    C378   O900      0.74671      .   S
    C90    O901      0.55010      .   S
    C298   O901      0.55010      .   S
    C108   O902      0.55021      .   S
    C305   O902      0.55021      .   S
    C106   O903      0.54956      .   S
    C305   O903      0.54956      .   S
    C118   O904      0.55162      .   S
    C319   O904      0.55162      .   S
    C320   O905      0.77046  1_565   S
    C319   O905      0.77046      .   S
    C320   O906      0.55001      .   S
    C125   O906      0.55001      .   S
    C320   O907      0.54617      .   S
    C119   O907      0.54617      .   S
    C221   O908      0.54940      .   S
    C389   O908      0.54940      .   S
    C389   O909      0.54970      .   S
    C204   O909      0.54970      .   S
    C407   O910      1.31738      .   S
    C4     O910      1.31738      .   S
    C395   O911      0.73593      .   S
    C394   O911      0.73593      .   S
    C0     O912      1.06862  1_564   S
    C4     O912      1.06860      .   S
    C1     O913      1.06858      .   S
    C5     O913      1.06858  1_455   S
    C2     O914      1.06866  1_565   S
    C6     O914      1.06865      .   S
    C3     O915      1.06826      .   S
    C7     O915      1.06826  1_556   S
