# CIF file generated by openbabel 2.4.90, see http://openbabel.sf.net
data_I
_chemical_name_common ''
_cell_length_a 17.288
_cell_length_b 17.276
_cell_length_c 17.335
_cell_angle_alpha 85.834
_cell_angle_beta 86.336
_cell_angle_gamma 86.54
_space_group_name_H-M_alt 'P 1'
_space_group_name_Hall 'P 1'
loop_
    _symmetry_equiv_pos_as_xyz
    x,y,z
loop_
    _atom_site_label
    _atom_site_type_symbol
    _atom_site_fract_x
    _atom_site_fract_y
    _atom_site_fract_z
    _atom_site_occupancy
    Zn0     Zn   0.74958   0.88050   0.88660   1.000
    Zn1     Zn   0.88629   0.74980   0.88283   1.000
    Zn2     Zn   0.75645   0.75721   0.75664   1.000
    Zn3     Zn   0.11956   0.11296   0.25275   1.000
    Zn4     Zn   0.25041   0.11952   0.11339   1.000
    Zn5     Zn   0.11371   0.25023   0.11717   1.000
    Zn6     Zn   0.24353   0.24283   0.24335   1.000
    Zn7     Zn   0.88042   0.88706   0.74724   1.000
    C8      C    0.82755   0.82572   0.60743   1.000
    C9      C    0.82291   0.81349   0.02775   1.000
    C10     C    0.60826   0.82772   0.82458   1.000
    O11     O    0.12292   0.22678   0.00720   1.000
    O12     O    0.35511   0.21815   0.22143   1.000
    O13     O    0.36103   0.12905   0.13017   1.000
    C14     C    0.02625   0.82539   0.81387   1.000
    C15     C    0.82464   0.60898   0.82760   1.000
    C16     C    0.81333   0.02704   0.82209   1.000
    C17     C    0.17245   0.17429   0.39256   1.000
    C18     C    0.17710   0.18656   0.97225   1.000
    C19     C    0.39174   0.17243   0.17525   1.000
    C20     C    0.97375   0.17467   0.18613   1.000
    C21     C    0.17533   0.39106   0.17236   1.000
    C22     C    0.18665   0.97299   0.17791   1.000
    O23     O    0.78035   0.78070   0.64501   1.000
    O24     O    0.87311   0.86981   0.63703   1.000
    O25     O    0.76427   0.84840   0.99638   1.000
    O26     O    0.87706   0.77323   0.99272   1.000
    O27     O    0.64488   0.78226   0.77813   1.000
    O28     O    0.63899   0.87086   0.86980   1.000
    O29     O    0.99542   0.76634   0.84951   1.000
    O30     O    0.99044   0.87950   0.77343   1.000
    O31     O    0.77987   0.64588   0.78004   1.000
    O32     O    0.86726   0.63942   0.87372   1.000
    O33     O    0.84681   0.99645   0.76282   1.000
    O34     O    0.77372   0.99111   0.87688   1.000
    O35     O    0.81841   0.81837   0.81806   1.000
    O36     O    0.21968   0.21928   0.35497   1.000
    O37     O    0.12687   0.13021   0.36297   1.000
    O38     O    0.23577   0.15170   0.00362   1.000
    O39     O    0.00460   0.23371   0.15050   1.000
    O40     O    0.00953   0.12053   0.22657   1.000
    O41     O    0.22008   0.35416   0.21998   1.000
    O42     O    0.13273   0.36061   0.12627   1.000
    O43     O    0.15316   0.00358   0.23718   1.000
    O44     O    0.22625   0.00892   0.12311   1.000
    O45     O    0.18158   0.18164   0.18194   1.000
loop_
    _geom_bond_atom_site_label_1
    _geom_bond_atom_site_label_2
    _geom_bond_distance
    _geom_bond_site_symmetry_2
    _ccdc_geom_bond_type
    O38    Zn4       1.97104      .   S
    O38    C18       1.27907  1_554   S
    O11    Zn5       1.97207      .   S
    O11    C18       1.27964  1_554   S
    C9     O26       1.28029  1_554   S
    C9     O25       1.27908  1_554   S
    Zn4    O44       1.97342      .   S
    Zn4    O13       1.97094      .   S
    Zn4    O45       1.95712      .   S
    Zn5    O42       1.97368      .   S
    Zn5    O39       1.96858      .   S
    O44    C22       1.28025  1_545   S
    O42    C21       1.28086      .   S
    O13    C19       1.28081      .   S
    O39    C20       1.28002  1_455   S
    C21    O41       1.27752      .   S
    C19    O12       1.27768      .   S
    C22    O43       1.27907  1_565   S
    O45    Zn3       1.95911      .   S
    C20    O40       1.28034  1_655   S
    O41    Zn6       1.95996      .   S
    O12    Zn6       1.96909      .   S
    O40    Zn3       1.97811      .   S
    O43    Zn3       1.97555      .   S
    Zn6    O36       1.97064      .   S
    Zn3    O37       1.96815      .   S
    O36    C17       1.27689      .   S
    O37    C17       1.28246      .   S
    C8     O24       1.28254      .   S
    C8     O23       1.27680      .   S
    O24    Zn7       1.96794      .   S
    O23    Zn2       1.97079      .   S
    Zn7    O33       1.97563      .   S
    Zn7    O30       1.97811      .   S
    Zn7    O35       1.95918      .   S
    Zn2    O27       1.96907      .   S
    Zn2    O31       1.95997      .   S
    O33    C16       1.27910  1_565   S
    O30    C14       1.28028  1_655   S
    O27    C10       1.27769      .   S
    O31    C15       1.27709      .   S
    C14    O29       1.28000  1_455   S
    O35    Zn0       1.95710      .   S
    C16    O34       1.28019  1_545   S
    C10    O28       1.27994      .   S
    C15    O32       1.28134      .   S
    O29    Zn1       1.96885      .   S
    O28    Zn0       1.97106      .   S
    O32    Zn1       1.97371      .   S
    O34    Zn0       1.97338      .   S
    Zn1    O26       1.97065      .   S
    Zn0    O25       1.97104      .   S
    O35    Zn1       1.96168      .   S
    O35    Zn2       1.96042      .   S
    O45    Zn5       1.96171      .   S
    O45    Zn6       1.96048      .   S
