# CIF file generated by openbabel 2.4.90, see http://openbabel.sf.net
data_I
_chemical_name_common ''
_cell_length_a 17.288
_cell_length_b 17.276
_cell_length_c 17.335
_cell_angle_alpha 85.834
_cell_angle_beta 86.336
_cell_angle_gamma 86.54
_space_group_name_H-M_alt 'P 1'
_space_group_name_Hall 'P 1'
loop_
    _symmetry_equiv_pos_as_xyz
    x,y,z
loop_
    _atom_site_label
    _atom_site_type_symbol
    _atom_site_fract_x
    _atom_site_fract_y
    _atom_site_fract_z
    _atom_site_occupancy
    N0      N    0.68521   0.17571   0.13500   1.000
    N1      N    0.86602   0.31568   0.82207   1.000
    N2      N    0.31480   0.82436   0.86492   1.000
    N3      N    0.13396   0.68435   0.17781   1.000
    N4      N    0.17698   0.13478   0.68533   1.000
    N5      N    0.82294   0.86524   0.31463   1.000
    Zr6     Zr   0.18059   0.17982   0.18039   1.000
    O7      O    0.99439   0.17687   0.16975   1.000
    O8      O    0.17818   0.16947   0.99401   1.000
    O9      O    0.17740   0.16701   0.37045   1.000
    O10     O    0.37034   0.17662   0.16758   1.000
    O11     O    0.16731   0.36958   0.17755   1.000
    O12     O    0.16957   0.99362   0.17850   1.000
    Zr13    Zr   0.81940   0.82023   0.81957   1.000
    O14     O    0.82258   0.83302   0.62952   1.000
    O15     O    0.83268   0.63046   0.82240   1.000
    O16     O    0.00560   0.82319   0.83020   1.000
    O17     O    0.62965   0.82346   0.83235   1.000
    O18     O    0.82180   0.83057   0.00597   1.000
    O19     O    0.83042   0.00642   0.82144   1.000
loop_
    _geom_bond_atom_site_label_1
    _geom_bond_atom_site_label_2
    _geom_bond_distance
    _geom_bond_site_symmetry_2
    _ccdc_geom_bond_type
    Zr6    O7        3.23966  1_455   S
    N0     O7        5.41856      .   S
    Zr6    O8        3.25196  1_554   S
    N4     O8        5.42887      .   S
    Zr6    O9        3.28307      .   S
    N4     O9        5.44609      .   S
    Zr6    O10       3.27119      .   S
    N0     O10       5.43575      .   S
    Zr6    O11       3.26945      .   S
    N3     O11       5.43405      .   S
    Zr6    O12       3.23660  1_545   S
    N3     O12       5.41597      .   S
    Zr13   O14       3.28304      .   S
    N5     O14       5.44628      .   S
    Zr13   O15       3.26963      .   S
    N1     O15       5.43435      .   S
    Zr13   O16       3.23972  1_655   S
    N2     O16       5.41868      .   S
    Zr13   O17       3.27107      .   S
    N2     O17       5.43555      .   S
    Zr13   O18       3.25206  1_556   S
    N5     O18       5.42848      .   S
    Zr13   O19       3.23637  1_565   S
    N1     O19       5.41569      .   S
