# CIF file generated by openbabel 2.4.90, see http://openbabel.sf.net
data_I
_chemical_name_common ''
_cell_length_a 10.086
_cell_length_b 11.597
_cell_length_c 14.793
_cell_angle_alpha 91.115
_cell_angle_beta 90.06
_cell_angle_gamma 90.013
_space_group_name_H-M_alt 'P 1'
_space_group_name_Hall 'P 1'
loop_
    _symmetry_equiv_pos_as_xyz
    x,y,z
loop_
    _atom_site_label
    _atom_site_type_symbol
    _atom_site_fract_x
    _atom_site_fract_y
    _atom_site_fract_z
    _atom_site_occupancy
    Zr0     Zr   0.07515   0.75493   0.12931   1.000
    Zr1     Zr   0.88766   0.74044   0.30948   1.000
    Zr2     Zr   0.57641   0.74509   0.37071   1.000
    Zr3     Zr   0.38720   0.75955   0.19071   1.000
    Zr4     Zr   0.92483   0.24507   0.87066   1.000
    Zr5     Zr   0.11230   0.25957   0.69049   1.000
    Zr6     Zr   0.42356   0.25492   0.62926   1.000
    Zr7     Zr   0.61277   0.24045   0.80926   1.000
    Zr8     Zr   0.99999   0.50000   0.99999   1.000
    Zr9     Zr   0.49999   0.00000   0.49999   1.000
    Zr10    Zr   0.00000   0.00000   1.00000   1.000
    Zr11    Zr   0.49998   0.50000   0.49999   1.000
    N12     N    0.10107   0.25732   0.03204   1.000
    O13     O    0.03849   0.26856   0.97857   1.000
    O14     O    0.05728   0.33229   0.01090   1.000
    O15     O    0.07846   0.16597   0.02498   1.000
    N16     N    0.21544   0.07783   0.55055   1.000
    O17     O    0.27551   0.14104   0.58508   1.000
    O18     O    0.19770   0.14220   0.60039   1.000
    O19     O    0.30571   0.04378   0.52529   1.000
    N20     N    0.33487   0.32384   0.82860   1.000
    O21     O    0.34980   0.30071   0.75824   1.000
    O22     O    0.27199   0.30187   0.77354   1.000
    O23     O    0.43223   0.30068   0.83319   1.000
    N24     N    0.13066   0.04944   0.81746   1.000
    O25     O    0.06738   0.12353   0.82841   1.000
    O26     O    0.11425   0.12715   0.78336   1.000
    O27     O    0.09181   0.01960   0.87857   1.000
    N28     N    0.39916   0.75740   0.53163   1.000
    O29     O    0.44296   0.83232   0.51064   1.000
    O30     O    0.46206   0.76859   0.47832   1.000
    O31     O    0.42171   0.66603   0.52472   1.000
    N32     N    0.77450   0.56952   0.44269   1.000
    O33     O    0.69494   0.62170   0.42337   1.000
    O34     O    0.67583   0.56043   0.45569   1.000
    O35     O    0.82766   0.62246   0.39939   1.000
    N36     N    0.89889   0.74268   0.96792   1.000
    O37     O    0.96148   0.73145   0.02139   1.000
    O38     O    0.94269   0.66771   0.98907   1.000
    O39     O    0.92151   0.83403   0.97499   1.000
    N40     N    0.83457   0.17608   0.67126   1.000
    O41     O    0.93183   0.19928   0.66661   1.000
    O42     O    0.85000   0.19924   0.74164   1.000
    O43     O    0.77199   0.19808   0.72629   1.000
    N44     N    0.66509   0.67617   0.17136   1.000
    O45     O    0.56774   0.69932   0.16678   1.000
    O46     O    0.65016   0.69929   0.24173   1.000
    O47     O    0.72798   0.69813   0.22642   1.000
    N48     N    0.97920   0.52138   0.20865   1.000
    O49     O    0.95746   0.60344   0.23534   1.000
    O50     O    0.00433   0.60706   0.19030   1.000
    O51     O    0.98974   0.50061   0.13914   1.000
    N52     N    0.63069   0.45047   0.68249   1.000
    O53     O    0.59183   0.48036   0.62139   1.000
    O54     O    0.56704   0.37642   0.67152   1.000
    O55     O    0.61435   0.37280   0.71652   1.000
    N56     N    0.71619   0.42191   0.94928   1.000
    O57     O    0.77645   0.35880   0.91477   1.000
    O58     O    0.69844   0.35765   0.89942   1.000
    O59     O    0.80623   0.45607   0.97461   1.000
    N60     N    0.78453   0.92217   0.44942   1.000
    O61     O    0.69426   0.95622   0.47468   1.000
    O62     O    0.72445   0.85896   0.41488   1.000
    O63     O    0.80227   0.85780   0.39957   1.000
    N64     N    0.47919   0.97863   0.29152   1.000
    O65     O    0.45741   0.89657   0.26481   1.000
    O66     O    0.50472   0.89295   0.30982   1.000
    O67     O    0.48970   0.99939   0.36101   1.000
    N68     N    0.28378   0.57809   0.05069   1.000
    O69     O    0.22352   0.64120   0.08520   1.000
    O70     O    0.30153   0.64235   0.10055   1.000
    O71     O    0.19374   0.54393   0.02537   1.000
    N72     N    0.27398   0.93025   0.05734   1.000
    O73     O    0.32717   0.87740   0.10071   1.000
    O74     O    0.19424   0.87812   0.07665   1.000
    O75     O    0.17545   0.93938   0.04432   1.000
    N76     N    0.16540   0.82392   0.32871   1.000
    O77     O    0.14997   0.80076   0.25833   1.000
    O78     O    0.22798   0.80192   0.27368   1.000
    O79     O    0.06813   0.80072   0.33335   1.000
    N80     N    0.36928   0.54954   0.31748   1.000
    O81     O    0.40814   0.51965   0.37858   1.000
    O82     O    0.43293   0.62359   0.32845   1.000
    O83     O    0.38563   0.62720   0.28345   1.000
    N84     N    0.22547   0.43048   0.55728   1.000
    O85     O    0.17231   0.37754   0.60058   1.000
    O86     O    0.30503   0.37830   0.57660   1.000
    O87     O    0.32413   0.43957   0.54428   1.000
    N88     N    0.52077   0.02137   0.70844   1.000
    O89     O    0.54255   0.10343   0.73515   1.000
    O90     O    0.49525   0.10705   0.69015   1.000
    O91     O    0.51027   0.00061   0.63896   1.000
    N92     N    0.86931   0.95056   0.18251   1.000
    O93     O    0.93258   0.87648   0.17156   1.000
    O94     O    0.88571   0.87286   0.21660   1.000
    O95     O    0.90817   0.98041   0.12140   1.000
    N96     N    0.02077   0.47863   0.79131   1.000
    O97     O    0.04251   0.39656   0.76463   1.000
    O98     O    0.99564   0.39294   0.80967   1.000
    O99     O    0.01023   0.49939   0.86083   1.000
    N100    N    0.60081   0.24261   0.46834   1.000
    O101    O    0.53791   0.23141   0.52165   1.000
    O102    O    0.55701   0.16769   0.48933   1.000
    O103    O    0.57826   0.33397   0.47525   1.000
    N104    N    0.72599   0.06975   0.94263   1.000
    O105    O    0.80573   0.12189   0.92332   1.000
    O106    O    0.82452   0.06062   0.95565   1.000
    O107    O    0.67280   0.12260   0.89926   1.000
loop_
    _geom_bond_atom_site_label_1
    _geom_bond_atom_site_label_2
    _geom_bond_distance
    _geom_bond_site_symmetry_2
    _ccdc_geom_bond_type
    N12    O13       1.02178  1_554   S
    Zr4    O13       1.97884  1_655   S
    N12    O14       1.02914      .   S
    Zr8    O14       2.03845  1_656   S
    N12    O15       1.08661      .   S
    Zr10   O15       2.10681  1_556   S
    N16    O17       1.07240      .   S
    Zr6    O17       2.08908      .   S
    N16    O18       1.05444      .   S
    Zr5    O18       2.07439      .   S
    N16    O19       1.05815      .   S
    Zr9    O19       2.05720      .   S
    N20    O21       1.08051      .   S
    Zr6    O21       2.10700      .   S
    N20    O22       1.05889      .   S
    Zr5    O22       2.07761      .   S
    N20    O23       1.02062      .   S
    Zr7    O23       1.98017      .   S
    N24    O25       1.08010      .   S
    Zr4    O25       2.10080  1_655   S
    N24    O26       1.05422      .   S
    Zr5    O26       2.08048      .   S
    N24    O27       1.05049      .   S
    Zr10   O27       2.03836      .   S
    N28    O29       1.02812      .   S
    Zr9    O29       2.03688  1_545   S
    N28    O30       1.02281      .   S
    Zr2    O30       1.98128      .   S
    N28    O31       1.08664      .   S
    Zr11   O31       2.10678      .   S
    N32    O33       1.04798      .   S
    Zr2    O33       2.03118      .   S
    N32    O34       1.01955      .   S
    Zr11   O34       2.02140      .   S
    N32    O35       1.04430      .   S
    Zr1    O35       2.01971      .   S
    N36    O37       1.02182  1_556   S
    Zr0    O37       1.97897  1_455   S
    N36    O38       1.02921      .   S
    Zr8    O38       2.03855      .   S
    N36    O39       1.08663      .   S
    Zr10   O39       2.10694  1_445   S
    N40    O41       1.01990      .   S
    Zr5    O41       1.97865  1_455   S
    N40    O42       1.08128      .   S
    Zr4    O42       2.11001      .   S
    N40    O43       1.05801      .   S
    Zr7    O43       2.07554      .   S
    N44    O45       1.02060      .   S
    Zr3    O45       1.98014      .   S
    N44    O46       1.08054      .   S
    Zr2    O46       2.10708      .   S
    N44    O47       1.05890      .   S
    Zr1    O47       2.07763      .   S
    N48    O49       1.04655      .   S
    Zr1    O49       2.03889      .   S
    N48    O50       1.06580  1_655   S
    Zr0    O50       2.07986      .   S
    N48    O51       1.05703      .   S
    Zr8    O51       2.06093  1_556   S
    N52    O53       1.04982      .   S
    Zr11   O53       2.03669      .   S
    N52    O54       1.08169      .   S
    Zr6    O54       2.10554      .   S
    N52    O55       1.05335      .   S
    Zr7    O55       2.07855      .   S
    N56    O57       1.07333      .   S
    Zr4    O57       2.09149      .   S
    N56    O58       1.05346      .   S
    Zr7    O58       2.07336      .   S
    N56    O59       1.05614      .   S
    Zr8    O59       2.05190      .   S
    N60    O61       1.05814      .   S
    Zr9    O61       2.05716  1_545   S
    N60    O62       1.07239      .   S
    Zr2    O62       2.08904      .   S
    N60    O63       1.05442      .   S
    Zr1    O63       2.07434      .   S
    N64    O65       1.04650      .   S
    Zr3    O65       2.03922      .   S
    N64    O66       1.06642      .   S
    Zr2    O66       2.08190      .   S
    N64    O67       1.05632      .   S
    Zr9    O67       2.05828  1_545   S
    N68    O69       1.07332      .   S
    Zr0    O69       2.09147      .   S
    N68    O70       1.05348      .   S
    Zr3    O70       2.07341      .   S
    N68    O71       1.05608      .   S
    Zr8    O71       2.05174  1_656   S
    N72    O73       1.04393      .   S
    Zr3    O73       2.01905      .   S
    N72    O74       1.04927      .   S
    Zr0    O74       2.03347      .   S
    N72    O75       1.01800      .   S
    Zr10   O75       2.01784  1_546   S
    N76    O77       1.08125      .   S
    Zr0    O77       2.10992      .   S
    N76    O78       1.05801      .   S
    Zr3    O78       2.07553      .   S
    N76    O79       1.01991      .   S
    Zr1    O79       1.97866  1_655   S
    N80    O81       1.04984      .   S
    Zr11   O81       2.03677      .   S
    N80    O82       1.08169      .   S
    Zr2    O82       2.10554      .   S
    N80    O83       1.05334      .   S
    Zr3    O83       2.07853      .   S
    N84    O85       1.04431      .   S
    Zr5    O85       2.01973      .   S
    N84    O86       1.04799      .   S
    Zr6    O86       2.03120      .   S
    N84    O87       1.01954      .   S
    Zr11   O87       2.02137      .   S
    N88    O89       1.04652      .   S
    Zr7    O89       2.03927      .   S
    N88    O90       1.06639      .   S
    Zr6    O90       2.08185      .   S
    N88    O91       1.05631      .   S
    Zr9    O91       2.05819      .   S
    N92    O93       1.08013      .   S
    Zr0    O93       2.10090  1_455   S
    N92    O94       1.05423      .   S
    Zr1    O94       2.08051      .   S
    N92    O95       1.05043      .   S
    Zr10   O95       2.03822  1_446   S
    N96    O97       1.04652      .   S
    Zr5    O97       2.03885      .   S
    N96    O98       1.06581  1_455   S
    Zr4    O98       2.07986      .   S
    N96    O99       1.05710      .   S
    Zr8    O99       2.06121  1_655   S
    N100   O101      1.02283      .   S
    Zr6    O101      1.98135      .   S
    N100   O102      1.02811      .   S
    Zr9    O102      2.03685      .   S
    N100   O103      1.08662      .   S
    Zr11   O103      2.10676      .   S
    N104   O105      1.04928      .   S
    Zr4    O105      2.03346      .   S
    N104   O106      1.01809      .   S
    Zr10   O106      2.01815  1_455   S
    N104   O107      1.04391      .   S
    Zr7    O107      2.01902      .   S
