# CIF file generated by openbabel 2.4.90, see http://openbabel.sf.net
data_I
_chemical_name_common ''
_cell_length_a 10.086
_cell_length_b 11.597
_cell_length_c 14.793
_cell_angle_alpha 91.115
_cell_angle_beta 90.06
_cell_angle_gamma 90.013
_space_group_name_H-M_alt 'P 1'
_space_group_name_Hall 'P 1'
loop_
    _symmetry_equiv_pos_as_xyz
    x,y,z
loop_
    _atom_site_label
    _atom_site_type_symbol
    _atom_site_fract_x
    _atom_site_fract_y
    _atom_site_fract_z
    _atom_site_occupancy
    C0      C    0.07515   0.75493   0.12931   1.000
    C1      C    0.88766   0.74044   0.30948   1.000
    C2      C    0.57641   0.74509   0.37071   1.000
    C3      C    0.38720   0.75955   0.19071   1.000
    C4      C    0.92483   0.24507   0.87066   1.000
    C5      C    0.11230   0.25957   0.69049   1.000
    C6      C    0.42356   0.25492   0.62926   1.000
    C7      C    0.61277   0.24045   0.80926   1.000
    C8      C    0.99999   0.50000   0.99999   1.000
    C9      C    0.49999   0.00000   0.49999   1.000
    C10     C    0.00000   0.00000   1.00000   1.000
    C11     C    0.49998   0.50000   0.49999   1.000
    C12     C    0.24774   0.85672   0.37230   1.000
    C13     C    0.95348   0.47547   0.27198   1.000
    C14     C    0.39203   0.56192   0.04272   1.000
    C15     C    0.79762   0.98018   0.23511   1.000
    C16     C    0.83637   0.69086   0.92031   1.000
    C17     C    0.29319   0.00378   0.01221   1.000
    C18     C    0.74724   0.64346   0.12770   1.000
    C19     C    0.45331   0.02457   0.22822   1.000
    C20     C    0.89275   0.93862   0.45752   1.000
    C21     C    0.29742   0.52003   0.26483   1.000
    C22     C    0.33635   0.80932   0.57885   1.000
    C23     C    0.79379   0.49590   0.48775   1.000
    C24     C    0.75223   0.14328   0.62767   1.000
    C25     C    0.04649   0.52452   0.72798   1.000
    C26     C    0.60793   0.43808   0.95724   1.000
    C27     C    0.20234   0.01983   0.76485   1.000
    C28     C    0.16360   0.30914   0.07964   1.000
    C29     C    0.70678   0.99622   0.98776   1.000
    C30     C    0.25273   0.35655   0.87226   1.000
    C31     C    0.54664   0.97542   0.77174   1.000
    C32     C    0.10722   0.06139   0.54244   1.000
    C33     C    0.70256   0.47997   0.73513   1.000
    C34     C    0.66362   0.19069   0.42111   1.000
    C35     C    0.20618   0.50410   0.51221   1.000
    C36     C    0.16585   0.82406   0.32946   1.000
    C37     C    0.97897   0.51977   0.20881   1.000
    C38     C    0.28429   0.57722   0.04983   1.000
    C39     C    0.86900   0.95171   0.18243   1.000
    C40     C    0.89796   0.74362   0.96683   1.000
    C41     C    0.27537   0.93065   0.05711   1.000
    C42     C    0.66552   0.67603   0.17061   1.000
    C43     C    0.47893   0.98021   0.29137   1.000
    C44     C    0.78503   0.92306   0.45030   1.000
    C45     C    0.36897   0.54841   0.31756   1.000
    C46     C    0.39824   0.75646   0.53271   1.000
    C47     C    0.77588   0.56912   0.44293   1.000
    C48     C    0.83412   0.17595   0.67051   1.000
    C49     C    0.02100   0.48023   0.79116   1.000
    C50     C    0.71568   0.42279   0.95013   1.000
    C51     C    0.13096   0.04830   0.81754   1.000
    C52     C    0.10201   0.25639   0.03313   1.000
    C53     C    0.72460   0.06935   0.94286   1.000
    C54     C    0.33445   0.32397   0.82935   1.000
    C55     C    0.52103   0.01980   0.70859   1.000
    C56     C    0.21493   0.07694   0.54967   1.000
    C57     C    0.63101   0.45159   0.68241   1.000
    C58     C    0.60172   0.24354   0.46725   1.000
    C59     C    0.22409   0.43088   0.55704   1.000
    C60     C    0.19393   0.80029   0.24658   1.000
    C61     C    0.05407   0.81462   0.36650   1.000
    C62     C    0.98377   0.63056   0.21457   1.000
    C63     C    0.00058   0.45970   0.13926   1.000
    C64     C    0.25137   0.65369   0.11011   1.000
    C65     C    0.20742   0.51953   0.00009   1.000
    C66     C    0.91656   0.84986   0.19191   1.000
    C67     C    0.89405   0.02050   0.12059   1.000
    C68     C    0.97297   0.68549   0.02042   1.000
    C69     C    0.88827   0.85075   0.96412   1.000
    C70     C    0.15385   0.89703   0.06260   1.000
    C71     C    0.37352   0.88954   0.09744   1.000
    C72     C    0.69406   0.69975   0.25348   1.000
    C73     C    0.55356   0.68542   0.13367   1.000
    C74     C    0.48408   0.86946   0.28551   1.000
    C75     C    0.50043   0.04029   0.36100   1.000
    C76     C    0.75234   0.84643   0.38998   1.000
    C77     C    0.70800   0.98056   0.49988   1.000
    C78     C    0.41674   0.65019   0.30815   1.000
    C79     C    0.39400   0.47951   0.37936   1.000
    C80     C    0.47351   0.81448   0.47931   1.000
    C81     C    0.38854   0.64934   0.53563   1.000
    C82     C    0.65436   0.60268   0.43738   1.000
    C83     C    0.87397   0.61037   0.40270   1.000
    C84     C    0.80604   0.19971   0.75339   1.000
    C85     C    0.94590   0.18538   0.63346   1.000
    C86     C    0.01620   0.36944   0.78540   1.000
    C87     C    0.99938   0.54031   0.86071   1.000
    C88     C    0.74860   0.34631   0.88985   1.000
    C89     C    0.79255   0.48047   0.99988   1.000
    C90     C    0.08340   0.15014   0.80806   1.000
    C91     C    0.10592   0.97950   0.87937   1.000
    C92     C    0.02699   0.31451   0.97954   1.000
    C93     C    0.11169   0.14925   0.03584   1.000
    C94     C    0.84612   0.10297   0.93737   1.000
    C95     C    0.62645   0.11046   0.90253   1.000
    C96     C    0.30591   0.30025   0.74649   1.000
    C97     C    0.44641   0.31458   0.86629   1.000
    C98     C    0.51589   0.13054   0.71447   1.000
    C99     C    0.49954   0.95972   0.63896   1.000
    C100    C    0.24762   0.15357   0.60999   1.000
    C101    C    0.29197   0.01944   0.50008   1.000
    C102    C    0.58323   0.34981   0.69182   1.000
    C103    C    0.60597   0.52049   0.62061   1.000
    C104    C    0.52645   0.18553   0.52065   1.000
    C105    C    0.61143   0.35066   0.46434   1.000
    C106    C    0.34561   0.39732   0.56259   1.000
    C107    C    0.12600   0.38963   0.59726   1.000
    O108    O    0.24585   0.54837   0.02496   1.000
    O109    O    0.10370   0.50976   0.00004   1.000
    O110    O    0.28428   0.96722   0.03466   1.000
    O111    O    0.02406   0.72021   0.07487   1.000
    O112    O    0.93546   0.71455   0.99363   1.000
    O113    O    0.10685   0.20282   0.03449   1.000
    O114    O    0.13281   0.28276   0.05639   1.000
    O115    O    0.06450   0.28545   0.00634   1.000
    O116    O    0.05585   0.07463   0.01792   1.000
    O117    O    0.33816   0.56957   0.04627   1.000
    O118    O    0.26783   0.61546   0.07997   1.000
    O119    O    0.21461   0.91384   0.05986   1.000
    O120    O    0.32444   0.91010   0.07727   1.000
    O121    O    0.11450   0.82598   0.09596   1.000
    O122    O    0.38036   0.82455   0.14407   1.000
    O123    O    0.16326   0.70431   0.11971   1.000
    O124    O    0.88152   0.98611   0.15151   1.000
    O125    O    0.94702   0.01025   0.06030   1.000
    O126    O    0.70638   0.65974   0.14916   1.000
    O127    O    0.99586   0.80240   0.16061   1.000
    O128    O    0.13454   0.77761   0.18795   1.000
    O129    O    0.60954   0.68073   0.15214   1.000
    O130    O    0.47038   0.72248   0.16219   1.000
    O131    O    0.98978   0.48973   0.17403   1.000
    O132    O    0.00029   0.47985   0.06963   1.000
    O133    O    0.67979   0.68789   0.21204   1.000
    O134    O    0.89278   0.90078   0.18717   1.000
    O135    O    0.83331   0.96594   0.20877   1.000
    O136    O    0.43564   0.81451   0.23811   1.000
    O137    O    0.98137   0.57517   0.21169   1.000
    O138    O    0.96623   0.49762   0.24039   1.000
    O139    O    0.93572   0.68550   0.26203   1.000
    O140    O    0.46612   0.00239   0.25980   1.000
    O141    O    0.17989   0.81217   0.28802   1.000
    O142    O    0.63523   0.72242   0.31209   1.000
    O143    O    0.33319   0.53422   0.29120   1.000
    O144    O    0.48151   0.92483   0.28844   1.000
    O145    O    0.48968   0.01025   0.32618   1.000
    O146    O    0.39285   0.59930   0.31286   1.000
    O147    O    0.49657   0.69764   0.33943   1.000
    O148    O    0.97087   0.77753   0.33799   1.000
    O149    O    0.88082   0.67540   0.35609   1.000
    O150    O    0.38148   0.51396   0.34846   1.000
    O151    O    0.10996   0.81934   0.34798   1.000
    O152    O    0.20680   0.84039   0.35088   1.000
    O153    O    0.50021   0.02015   0.43049   1.000
    O154    O    0.66438   0.79576   0.38034   1.000
    O155    O    0.61538   0.67388   0.40405   1.000
    O156    O    0.52496   0.77978   0.42501   1.000
    O157    O    0.44699   0.48976   0.43968   1.000
    O158    O    0.76869   0.88475   0.42014   1.000
    O159    O    0.82492   0.58975   0.42282   1.000
    O160    O    0.63267   0.21712   0.44418   1.000
    O161    O    0.71512   0.58590   0.44015   1.000
    O162    O    0.78483   0.53251   0.46534   1.000
    O163    O    0.83889   0.93084   0.45391   1.000
    O164    O    0.74651   0.95181   0.47509   1.000
    O165    O    0.60658   0.29710   0.46580   1.000
    O166    O    0.55571   0.42533   0.48217   1.000
    O167    O    0.56409   0.21453   0.49395   1.000
    O168    O    0.43588   0.78547   0.50601   1.000
    O169    O    0.60399   0.99028   0.49993   1.000
    O170    O    0.39598   0.00972   0.50003   1.000
    O171    O    0.49976   0.97986   0.56947   1.000
    O172    O    0.44426   0.57467   0.51781   1.000
    O173    O    0.55298   0.51025   0.56030   1.000
    O174    O    0.25345   0.04819   0.52488   1.000
    O175    O    0.21513   0.46749   0.53462   1.000
    O176    O    0.47501   0.22022   0.57496   1.000
    O177    O    0.39339   0.70290   0.53417   1.000
    O178    O    0.36730   0.78289   0.55578   1.000
    O179    O    0.16108   0.06917   0.54605   1.000
    O180    O    0.23128   0.11525   0.57983   1.000
    O181    O    0.28485   0.41410   0.55982   1.000
    O182    O    0.17504   0.41025   0.57715   1.000
    O183    O    0.38459   0.32612   0.59593   1.000
    O184    O    0.11915   0.32460   0.64388   1.000
    O185    O    0.33559   0.20424   0.61962   1.000
    O186    O    0.61849   0.48604   0.65151   1.000
    O187    O    0.79317   0.15962   0.64909   1.000
    O188    O    0.50340   0.30236   0.66054   1.000
    O189    O    0.36473   0.27758   0.68788   1.000
    O190    O    0.89001   0.18066   0.65198   1.000
    O191    O    0.02910   0.22248   0.66197   1.000
    O192    O    0.51028   0.98976   0.67378   1.000
    O193    O    0.82008   0.18783   0.71195   1.000
    O194    O    0.60712   0.40070   0.68711   1.000
    O195    O    0.66678   0.46578   0.70877   1.000
    O196    O    0.06425   0.31450   0.73794   1.000
    O197    O    0.51846   0.07517   0.71153   1.000
    O198    O    0.53384   0.99761   0.74016   1.000
    O199    O    0.56433   0.18550   0.76187   1.000
    O200    O    0.03374   0.50238   0.75957   1.000
    O201    O    0.32018   0.31211   0.78792   1.000
    O202    O    0.86543   0.22239   0.81202   1.000
    O203    O    0.16665   0.03406   0.79120   1.000
    O204    O    0.01860   0.42483   0.78828   1.000
    O205    O    0.01019   0.51027   0.82593   1.000
    O206    O    0.10718   0.09922   0.81280   1.000
    O207    O    0.00411   0.19761   0.83936   1.000
    O208    O    0.52959   0.27752   0.83778   1.000
    O209    O    0.61961   0.17546   0.85590   1.000
    O210    O    0.11844   0.01390   0.84846   1.000
    O211    O    0.39043   0.31928   0.84782   1.000
    O212    O    0.29359   0.34026   0.85081   1.000
    O213    O    0.99969   0.52015   0.93035   1.000
    O214    O    0.83671   0.29569   0.88026   1.000
    O215    O    0.88547   0.17402   0.90401   1.000
    O216    O    0.97591   0.27979   0.92510   1.000
    O217    O    0.05296   0.98975   0.93969   1.000
    O218    O    0.73214   0.38455   0.91999   1.000
    O219    O    0.67553   0.08991   0.92269   1.000
    O220    O    0.86716   0.71724   0.94357   1.000
    O221    O    0.78536   0.08616   0.94011   1.000
    O222    O    0.71569   0.03278   0.96531   1.000
    O223    O    0.66181   0.43044   0.95369   1.000
    O224    O    0.75411   0.45163   0.97501   1.000
    O225    O    0.89311   0.79719   0.96548   1.000
    O226    O    0.94413   0.92538   0.98206   1.000
    O227    O    0.89627   0.49024   0.99994   1.000
    O228    O    0.29057   0.77992   0.21864   1.000
    O229    O    0.02946   0.69275   0.17194   1.000
    O230    O    0.31929   0.70662   0.15041   1.000
    O231    O    0.90211   0.79515   0.25070   1.000
    O232    O    0.98648   0.59274   0.01021   1.000
    O233    O    0.07692   0.94852   0.03130   1.000
    O234    O    0.79086   0.72009   0.28148   1.000
    O235    O    0.53024   0.80727   0.32811   1.000
    O236    O    0.82000   0.79343   0.34973   1.000
    O237    O    0.40197   0.70487   0.24943   1.000
    O238    O    0.48675   0.90724   0.48965   1.000
    O239    O    0.57717   0.55134   0.46868   1.000
    O240    O    0.70941   0.22008   0.78132   1.000
    O241    O    0.97051   0.30725   0.82803   1.000
    O242    O    0.68069   0.29338   0.84956   1.000
    O243    O    0.09785   0.20486   0.74927   1.000
    O244    O    0.01349   0.40726   0.98977   1.000
    O245    O    0.92306   0.05149   0.96868   1.000
    O246    O    0.20910   0.27991   0.71849   1.000
    O247    O    0.46973   0.19273   0.67186   1.000
    O248    O    0.17996   0.20657   0.65024   1.000
    O249    O    0.59800   0.29513   0.75054   1.000
    O250    O    0.51322   0.09276   0.51032   1.000
    O251    O    0.42280   0.44866   0.53129   1.000
loop_
    _geom_bond_atom_site_label_1
    _geom_bond_atom_site_label_2
    _geom_bond_distance
    _geom_bond_site_symmetry_2
    _ccdc_geom_bond_type
    C65    O108      0.62640      .   S
    C38    O108      0.62640      .   S
    C65    O109      1.05212      .   S
    C8     O109      1.05212  1_656   S
    C17    O110      0.55115  1_545   S
    C41    O110      0.55115      .   S
    C68    O111      1.03090  1_655   S
    C0     O111      1.03090      .   S
    C68    O112      0.64712  1_554   S
    C40    O112      0.64712      .   S
    C52    O113      0.62387      .   S
    C93    O113      0.62387      .   S
    C52    O114      0.55140      .   S
    C28    O114      0.55140      .   S
    C52    O115      0.64713      .   S
    C92    O115      0.64713  1_556   S
    C93    O116      1.06163      .   S
    C10    O116      1.06163  1_556   S
    C14    O117      0.55295      .   S
    C38    O117      0.55295      .   S
    C38    O118      0.64460      .   S
    C64    O118      0.64460      .   S
    C41    O119      0.64458      .   S
    C70    O119      0.64458      .   S
    C41    O120      0.62716      .   S
    C71    O120      0.62716      .   S
    C70    O121      1.04688      .   S
    C0     O121      1.04688      .   S
    C71    O122      1.03392      .   S
    C3     O122      1.03392      .   S
    C64    O123      1.07322      .   S
    C0     O123      1.07322      .   S
    C67    O124      0.62565  1_545   S
    C39    O124      0.62565      .   S
    C67    O125      1.04508      .   S
    C10    O125      1.04508  1_456   S
    C18    O126      0.55156      .   S
    C42    O126      0.55156      .   S
    C0     O127      1.07147  1_455   S
    C66    O127      1.07147      .   S
    C0     O128      1.08179      .   S
    C60    O128      1.08179      .   S
    C73    O129      0.62982      .   S
    C42    O129      0.62982      .   S
    C73    O130      1.02974      .   S
    C3     O130      1.02974      .   S
    C63    O131      0.62530  1_455   S
    C37    O131      0.62530      .   S
    C63    O132      1.06064      .   S
    C8     O132      1.06064  1_656   S
    C42    O133      0.64173      .   S
    C72    O133      0.64173      .   S
    C39    O134      0.64254      .   S
    C66    O134      0.64254      .   S
    C39    O135      0.55364      .   S
    C15    O135      0.55364      .   S
    C3     O136      1.05748      .   S
    C74    O136      1.05748      .   S
    C37    O137      0.64345      .   S
    C62    O137      0.64345      .   S
    C37    O138      0.55281      .   S
    C13    O138      0.55281      .   S
    C62    O139      1.05694      .   S
    C1     O139      1.05694      .   S
    C19    O140      0.55281      .   S
    C43    O140      0.55281  1_565   S
    C60    O141      0.64165      .   S
    C36    O141      0.64165      .   S
    C72    O142      1.07951      .   S
    C2     O142      1.07951      .   S
    C21    O143      0.55366      .   S
    C45    O143      0.55366      .   S
    C74    O144      0.64331      .   S
    C43    O144      0.64331      .   S
    C43    O145      0.62547  1_565   S
    C75    O145      0.62547      .   S
    C78    O146      0.64246      .   S
    C45    O146      0.64246      .   S
    C78    O147      1.07443      .   S
    C2     O147      1.07443      .   S
    C1     O148      1.02916      .   S
    C61    O148      1.02916  1_455   S
    C1     O149      1.03406      .   S
    C83    O149      1.03406      .   S
    C45    O150      0.62570      .   S
    C79    O150      0.62570      .   S
    C36    O151      0.62987      .   S
    C61    O151      0.62987      .   S
    C36    O152      0.55152      .   S
    C12    O152      0.55152      .   S
    C75    O153      1.05867      .   S
    C9     O153      1.05867      .   S
    C2     O154      1.07196      .   S
    C76    O154      1.07196      .   S
    C2     O155      1.04647      .   S
    C82    O155      1.04647      .   S
    C2     O156      1.03189      .   S
    C80    O156      1.03189      .   S
    C79    O157      1.04435      .   S
    C11    O157      1.04435      .   S
    C76    O158      0.64480      .   S
    C44    O158      0.64480      .   S
    C83    O159      0.62724      .   S
    C47    O159      0.62724      .   S
    C34    O160      0.55141      .   S
    C58    O160      0.55141      .   S
    C82    O161      0.64454      .   S
    C47    O161      0.64454      .   S
    C47    O162      0.55117      .   S
    C23    O162      0.55117      .   S
    C44    O163      0.55298      .   S
    C20    O163      0.55298      .   S
    C44    O164      0.62625      .   S
    C77    O164      0.62625      .   S
    C105   O165      0.62384      .   S
    C58    O165      0.62384      .   S
    C105   O166      1.06154      .   S
    C11    O166      1.06154      .   S
    C58    O167      0.64704      .   S
    C104   O167      0.64704      .   S
    C80    O168      0.64704      .   S
    C46    O168      0.64704      .   S
    C77    O169      1.05505      .   S
    C9     O169      1.05505  1_545   S
    C9     O170      1.05509      .   S
    C101   O170      1.05509      .   S
    C9     O171      1.05859  1_545   S
    C99    O171      1.05859      .   S
    C11    O172      1.06154      .   S
    C81    O172      1.06154      .   S
    C11    O173      1.04431      .   S
    C103   O173      1.04431      .   S
    C101   O174      0.62626      .   S
    C56    O174      0.62626      .   S
    C35    O175      0.55117      .   S
    C59    O175      0.55117      .   S
    C104   O176      1.03193      .   S
    C6     O176      1.03193      .   S
    C46    O177      0.62384      .   S
    C81    O177      0.62384      .   S
    C46    O178      0.55142      .   S
    C22    O178      0.55142      .   S
    C32    O179      0.55298      .   S
    C56    O179      0.55298      .   S
    C56    O180      0.64480      .   S
    C100   O180      0.64480      .   S
    C59    O181      0.64454      .   S
    C106   O181      0.64454      .   S
    C59    O182      0.62725      .   S
    C107   O182      0.62725      .   S
    C106   O183      1.04648      .   S
    C6     O183      1.04648      .   S
    C107   O184      1.03408      .   S
    C5     O184      1.03408      .   S
    C100   O185      1.07198      .   S
    C6     O185      1.07198      .   S
    C103   O186      0.62571      .   S
    C57    O186      0.62571      .   S
    C24    O187      0.55152      .   S
    C48    O187      0.55152      .   S
    C6     O188      1.07442      .   S
    C102   O188      1.07442      .   S
    C6     O189      1.07947      .   S
    C96    O189      1.07947      .   S
    C85    O190      0.62987      .   S
    C48    O190      0.62987      .   S
    C85    O191      1.02917  1_655   S
    C5     O191      1.02917      .   S
    C99    O192      0.62548      .   S
    C55    O192      0.62548  1_545   S
    C48    O193      0.64165      .   S
    C84    O193      0.64165      .   S
    C57    O194      0.64246      .   S
    C102   O194      0.64246      .   S
    C57    O195      0.55366      .   S
    C33    O195      0.55366      .   S
    C5     O196      1.05693      .   S
    C86    O196      1.05693      .   S
    C55    O197      0.64330      .   S
    C98    O197      0.64330      .   S
    C55    O198      0.55281  1_545   S
    C31    O198      0.55281      .   S
    C98    O199      1.05749      .   S
    C7     O199      1.05749      .   S
    C25    O200      0.55282      .   S
    C49    O200      0.55282      .   S
    C96    O201      0.64173      .   S
    C54    O201      0.64173      .   S
    C84    O202      1.08184      .   S
    C4     O202      1.08184      .   S
    C27    O203      0.55365      .   S
    C51    O203      0.55365      .   S
    C86    O204      0.64345      .   S
    C49    O204      0.64345      .   S
    C49    O205      0.62530      .   S
    C87    O205      0.62530  1_655   S
    C90    O206      0.64254      .   S
    C51    O206      0.64254      .   S
    C90    O207      1.07141      .   S
    C4     O207      1.07141  1_655   S
    C7     O208      1.02975      .   S
    C97    O208      1.02975      .   S
    C7     O209      1.03391      .   S
    C95    O209      1.03391      .   S
    C51    O210      0.62564      .   S
    C91    O210      0.62564  1_565   S
    C54    O211      0.62982      .   S
    C97    O211      0.62982      .   S
    C54    O212      0.55155      .   S
    C30    O212      0.55155      .   S
    C87    O213      1.06086      .   S
    C8     O213      1.06086      .   S
    C4     O214      1.07324      .   S
    C88    O214      1.07324      .   S
    C4     O215      1.04687      .   S
    C94    O215      1.04687      .   S
    C4     O216      1.03082      .   S
    C92    O216      1.03082  1_455   S
    C91    O217      1.04515      .   S
    C10    O217      1.04515  1_545   S
    C88    O218      0.64460      .   S
    C50    O218      0.64460      .   S
    C95    O219      0.62715      .   S
    C53    O219      0.62715      .   S
    C16    O220      0.55141      .   S
    C40    O220      0.55141      .   S
    C94    O221      0.64458      .   S
    C53    O221      0.64458      .   S
    C53    O222      0.55115      .   S
    C29    O222      0.55115  1_565   S
    C50    O223      0.55296      .   S
    C26    O223      0.55296      .   S
    C50    O224      0.62641      .   S
    C89    O224      0.62641      .   S
    C69    O225      0.62387      .   S
    C40    O225      0.62387      .   S
    C69    O226      1.06176      .   S
    C10    O226      1.06176  1_445   S
    C89    O227      1.05221      .   S
    C8     O227      1.05221      .   S
    C60    O228      1.08339      .   S
    C3     O228      1.08339      .   S
    C62    O229      1.07158  1_655   S
    C0     O229      1.07158      .   S
    C64    O230      1.08906      .   S
    C3     O230      1.08906      .   S
    C66    O231      1.09626      .   S
    C1     O231      1.09626      .   S
    C68    O232      1.09180      .   S
    C8     O232      1.09180  1_556   S
    C70    O233      1.08769      .   S
    C10    O233      1.08769  1_546   S
    C72    O234      1.08433      .   S
    C1     O234      1.08433      .   S
    C74    O235      1.07301      .   S
    C2     O235      1.07301      .   S
    C76    O236      1.08845      .   S
    C1     O236      1.08845      .   S
    C78    O237      1.09548      .   S
    C3     O237      1.09548      .   S
    C80    O238      1.09177      .   S
    C9     O238      1.09177  1_545   S
    C82    O239      1.08916      .   S
    C11    O239      1.08916      .   S
    C84    O240      1.08339      .   S
    C7     O240      1.08339      .   S
    C86    O241      1.07155  1_455   S
    C4     O241      1.07155      .   S
    C88    O242      1.08904      .   S
    C7     O242      1.08904      .   S
    C90    O243      1.09625      .   S
    C5     O243      1.09625      .   S
    C92    O244      1.09179      .   S
    C8     O244      1.09179  1_655   S
    C94    O245      1.08790      .   S
    C10    O245      1.08790  1_455   S
    C96    O246      1.08432      .   S
    C5     O246      1.08432      .   S
    C98    O247      1.07300      .   S
    C6     O247      1.07300      .   S
    C100   O248      1.08847      .   S
    C5     O248      1.08847      .   S
    C102   O249      1.09549      .   S
    C7     O249      1.09549      .   S
    C104   O250      1.09174      .   S
    C9     O250      1.09174      .   S
    C106   O251      1.08914      .   S
    C11    O251      1.08914      .   S
