# CIF file generated by openbabel 2.4.90, see http://openbabel.sf.net
data_I
_chemical_name_common ''
_cell_length_a 13.585
_cell_length_b 14.447
_cell_length_c 14.451
_cell_angle_alpha 69.286
_cell_angle_beta 71.796
_cell_angle_gamma 108.206
_space_group_name_H-M_alt 'P 1'
_space_group_name_Hall 'P 1'
loop_
    _symmetry_equiv_pos_as_xyz
    x,y,z
loop_
    _atom_site_label
    _atom_site_type_symbol
    _atom_site_fract_x
    _atom_site_fract_y
    _atom_site_fract_z
    _atom_site_occupancy
    H0      H    0.31731   0.83855   0.39441   1.000
    H1      H    0.23722   0.89393   0.34694   1.000
    H2      H    0.30407   0.08575   0.45657   1.000
    H3      H    0.10060   0.80236   0.75930   1.000
    H4      H    0.03802   0.87288   0.70306   1.000
    H5      H    0.46948   0.02073   0.25686   1.000
    H6      H    0.36631   0.07240   0.28273   1.000
    H7      H    0.38462   0.10076   0.58030   1.000
    H8      H    0.35333   0.95669   0.62960   1.000
    H9      H    0.50298   0.12635   0.36040   1.000
    H10     H    0.45692   0.98053   0.44528   1.000
    H11     H    0.19292   0.96341   0.76228   1.000
    H12     H    0.17195   0.04238   0.64988   1.000
    H13     H    0.71298   0.39415   0.76714   1.000
    H14     H    0.58530   0.34691   0.75955   1.000
    H15     H    0.76037   0.45645   0.45810   1.000
    H16     H    0.85991   0.75948   0.43836   1.000
    H17     H    0.74085   0.70330   0.42466   1.000
    H18     H    0.72730   0.25651   0.72236   1.000
    H19     H    0.64957   0.28259   0.64526   1.000
    H20     H    0.96426   0.58005   0.31886   1.000
    H21     H    0.98265   0.62934   0.41350   1.000
    H22     H    0.86356   0.36007   0.51309   1.000
    H23     H    0.90264   0.44488   0.57390   1.000
    H24     H    0.95437   0.76218   0.27438   1.000
    H25     H    0.82097   0.64991   0.30821   1.000
    H26     H    0.47890   0.76713   0.83880   1.000
    H27     H    0.34349   0.75914   0.89384   1.000
    H28     H    0.21855   0.45778   0.08565   1.000
    H29     H    0.29935   0.43827   0.80231   1.000
    H30     H    0.16653   0.42455   0.87167   1.000
    H31     H    0.44880   0.72228   0.02118   1.000
    H32     H    0.29418   0.64497   0.07238   1.000
    H33     H    0.28366   0.31860   0.10146   1.000
    H34     H    0.39654   0.41323   0.95760   1.000
    H35     H    0.37658   0.51297   0.12690   1.000
    H36     H    0.47629   0.57385   0.98135   1.000
    H37     H    0.22944   0.27399   0.96395   1.000
    H38     H    0.12994   0.30824   0.04190   1.000
    H39     H    0.68268   0.16148   0.60559   1.000
    H40     H    0.76277   0.10610   0.65306   1.000
    H41     H    0.69592   0.91428   0.54343   1.000
    H42     H    0.89940   0.19767   0.24066   1.000
    H43     H    0.96197   0.12716   0.29694   1.000
    H44     H    0.53052   0.97930   0.74315   1.000
    H45     H    0.63369   0.92763   0.71720   1.000
    H46     H    0.61538   0.89927   0.41969   1.000
    H47     H    0.64667   0.04335   0.37040   1.000
    H48     H    0.49701   0.87369   0.63956   1.000
    H49     H    0.54307   0.01951   0.55472   1.000
    H50     H    0.80707   0.03662   0.23772   1.000
    H51     H    0.82805   0.95766   0.35013   1.000
    H52     H    0.28701   0.60588   0.23287   1.000
    H53     H    0.41469   0.65312   0.24045   1.000
    H54     H    0.23962   0.54358   0.54191   1.000
    H55     H    0.14009   0.24056   0.56164   1.000
    H56     H    0.25914   0.29673   0.57534   1.000
    H57     H    0.27269   0.74353   0.27764   1.000
    H58     H    0.35043   0.71744   0.35474   1.000
    H59     H    0.03574   0.41998   0.68114   1.000
    H60     H    0.01734   0.37069   0.58650   1.000
    H61     H    0.13644   0.63996   0.48691   1.000
    H62     H    0.09735   0.55515   0.42610   1.000
    H63     H    0.04562   0.23785   0.72562   1.000
    H64     H    0.17903   0.35013   0.69179   1.000
    H65     H    0.52109   0.23290   0.16115   1.000
    H66     H    0.65650   0.24089   0.10616   1.000
    H67     H    0.78144   0.54225   0.91436   1.000
    H68     H    0.70065   0.56176   0.19770   1.000
    H69     H    0.83346   0.57549   0.12833   1.000
    H70     H    0.55119   0.27775   0.97882   1.000
    H71     H    0.70581   0.35506   0.92763   1.000
    H72     H    0.71633   0.68144   0.89854   1.000
    H73     H    0.60345   0.58680   0.04240   1.000
    H74     H    0.62342   0.48706   0.87302   1.000
    H75     H    0.52370   0.42618   0.01865   1.000
    H76     H    0.77055   0.72605   0.03606   1.000
    H77     H    0.87006   0.69180   0.95804   1.000
    C78     C    0.39429   0.01288   0.32288   1.000
    C79     C    0.43000   0.04027   0.40440   1.000
    C80     C    0.32513   0.01851   0.59628   1.000
    C81     C    0.19875   0.97834   0.68036   1.000
    C82     C    0.71789   0.32265   0.66435   1.000
    C83     C    0.83472   0.40411   0.55523   1.000
    C84     C    0.92099   0.59607   0.38519   1.000
    C85     C    0.87849   0.68031   0.34154   1.000
    C86     C    0.38155   0.66417   0.01316   1.000
    C87     C    0.38973   0.55510   0.04081   1.000
    C88     C    0.30661   0.38494   0.01905   1.000
    C89     C    0.22070   0.34131   0.97842   1.000
    C90     C    0.60570   0.98715   0.67712   1.000
    C91     C    0.57000   0.95976   0.59558   1.000
    C92     C    0.67487   0.98153   0.40372   1.000
    C93     C    0.80124   0.02170   0.31964   1.000
    C94     C    0.28210   0.67738   0.33565   1.000
    C95     C    0.16528   0.59592   0.44477   1.000
    C96     C    0.07901   0.40396   0.61482   1.000
    C97     C    0.12150   0.31972   0.65840   1.000
    C98     C    0.61844   0.33586   0.98680   1.000
    C99     C    0.61027   0.44494   0.95919   1.000
    C100    C    0.69339   0.61509   0.98095   1.000
    C101    C    0.77930   0.65872   0.02158   1.000
    N102    N    0.29148   0.89918   0.38480   1.000
    N103    N    0.32434   0.02362   0.49276   1.000
    N104    N    0.11711   0.87347   0.69129   1.000
    N105    N    0.67729   0.38468   0.71629   1.000
    N106    N    0.81707   0.49258   0.48376   1.000
    N107    N    0.80825   0.69141   0.43555   1.000
    N108    N    0.39257   0.71607   0.89927   1.000
    N109    N    0.30087   0.48353   0.02387   1.000
    N110    N    0.24459   0.43539   0.87309   1.000
    N111    N    0.70851   0.10086   0.61520   1.000
    N112    N    0.67566   0.97642   0.50724   1.000
    N113    N    0.88289   0.12657   0.30871   1.000
    N114    N    0.32271   0.61536   0.28371   1.000
    N115    N    0.18293   0.50745   0.51624   1.000
    N116    N    0.19174   0.30863   0.56445   1.000
    N117    N    0.60742   0.28397   0.10073   1.000
    N118    N    0.69913   0.51650   0.97613   1.000
    N119    N    0.75540   0.56465   0.12691   1.000
loop_
    _geom_bond_atom_site_label_1
    _geom_bond_atom_site_label_2
    _geom_bond_distance
    _geom_bond_site_symmetry_2
    _ccdc_geom_bond_type
    C86    H31       1.09935      .   S
    C86    C87       1.53196      .   S
    C86    H32       1.09992      .   S
    C86    N108      1.48198  1_554   S
    H75    C99       1.09523  1_554   S
    C88    N109      1.47502      .   S
    C88    H33       1.09912      .   S
    C88    H34       1.09622  1_554   S
    C88    C89       1.52787  1_554   S
    C101   H76       1.09757      .   S
    C101   N119      1.49048      .   S
    C101   H77       1.09806  1_554   S
    C101   C100      1.52787  1_554   S
    N109   C87       1.47309      .   S
    N109   H28       1.03307      .   S
    C87    H35       1.09892      .   S
    C87    H36       1.09523  1_554   S
    H38    C89       1.09777  1_554   S
    H73    C100      1.09621  1_554   S
    N117   H66       1.04658      .   S
    N117   H65       1.02270      .   S
    N117   C98       1.48250  1_554   S
    N119   H69       1.03035      .   S
    N119   H68       1.03761      .   S
    H52    N114      1.02272      .   S
    H50    C93       1.09744      .   S
    H53    N114      1.04624      .   S
    H42    N113      1.03743      .   S
    H5     C78       1.09936      .   S
    H24    C85       1.09751      .   S
    H57    C94       1.09944      .   S
    H6     C78       1.09991      .   S
    N114   C94       1.48213      .   S
    H43    N113      1.03072      .   S
    H25    C85       1.09818      .   S
    N113   C93       1.49057      .   S
    H20    C84       1.09906      .   S
    C93    H51       1.09780  1_545   S
    C93    C92       1.52830  1_545   S
    C78    N102      1.48172  1_545   S
    C78    C79       1.53185      .   S
    C94    H58       1.09993      .   S
    C94    C95       1.53192      .   S
    C85    C84       1.52830      .   S
    C85    N107      1.49045      .   S
    H1     N102      1.04633      .   S
    H9     C79       1.10000      .   S
    H47    C92       1.09595  1_545   S
    N102   H0        1.02272      .   S
    C84    H21       1.09624      .   S
    C84    N106      1.47495      .   S
    C92    H46       1.09906      .   S
    C92    N112      1.47508      .   S
    C79    H10       1.09515  1_545   S
    C79    N103      1.47322      .   S
    H17    N107      1.03050      .   S
    H62    C95       1.09527      .   S
    N107   H16       1.03731      .   S
    C95    H61       1.10004      .   S
    C95    N115      1.47314      .   S
    H2     N103      1.03317      .   S
    H15    N106      1.03309      .   S
    N106   C83       1.47314      .   S
    N103   C80       1.47508      .   S
    N112   H41       1.03317      .   S
    N112   C91       1.47308      .   S
    H22    C83       1.10004      .   S
    N115   H54       1.03320      .   S
    N115   C96       1.47499      .   S
    H49    C91       1.09503  1_545   S
    C83    H23       1.09527      .   S
    C83    C82       1.53192      .   S
    H55    N116      1.03731      .   S
    N116   H56       1.03051      .   S
    N116   C97       1.48980      .   S
    H7     C80       1.09901      .   S
    H60    C96       1.09635      .   S
    C91    H48       1.10003      .   S
    C91    C90       1.53212      .   S
    C80    H8        1.09596  1_545   S
    C80    C81       1.52830  1_545   S
    H39    N111      1.02270      .   S
    C96    C97       1.52805      .   S
    C96    H59       1.09895      .   S
    N111   H40       1.04633      .   S
    N111   C90       1.48173  1_545   S
    H19    C82       1.09992      .   S
    H12    C81       1.09777  1_545   S
    C97    H64       1.09888      .   S
    C97    H63       1.09769      .   S
    C82    N105      1.48212      .   S
    C82    H18       1.09943      .   S
    C90    H45       1.09955      .   S
    C90    H44       1.09943      .   S
    C81    N104      1.49057      .   S
    C81    H11       1.09744      .   S
    N104   H4        1.03072      .   S
    N104   H3        1.03712      .   S
    N105   H14       1.04625      .   S
    N105   H13       1.02285      .   S
    H29    N110      1.03749      .   S
    H26    N108      1.02287      .   S
    H30    N110      1.03036      .   S
    H74    C99       1.09995      .   S
    N110   C89       1.49047      .   S
    H27    N108      1.04658      .   S
    H72    C100      1.09912      .   S
    H67    N118      1.03301      .   S
    H71    C98       1.09967      .   S
    C99    N118      1.47309      .   S
    C99    C98       1.53201      .   S
    H37    C89       1.09750      .   S
    N118   C100      1.47502      .   S
    H70    C98       1.09898      .   S
