# CIF file generated by openbabel 2.4.90, see http://openbabel.sf.net
data_I
_chemical_name_common ''
_cell_length_a 13.585
_cell_length_b 14.447
_cell_length_c 14.451
_cell_angle_alpha 69.286
_cell_angle_beta 71.796
_cell_angle_gamma 108.206
_space_group_name_H-M_alt 'P 1'
_space_group_name_Hall 'P 1'
loop_
    _symmetry_equiv_pos_as_xyz
    x,y,z
loop_
    _atom_site_label
    _atom_site_type_symbol
    _atom_site_fract_x
    _atom_site_fract_y
    _atom_site_fract_z
    _atom_site_occupancy
    Ga0     Ga   0.18666   0.86710   0.54522   1.000
    Ga1     Ga   0.52195   0.37718   0.45341   1.000
    Ga2     Ga   0.73232   0.54519   0.58803   1.000
    Ga3     Ga   0.97520   0.45360   0.16950   1.000
    Ga4     Ga   0.32010   0.58784   0.86694   1.000
    Ga5     Ga   0.85524   0.83079   0.62280   1.000
    Ga6     Ga   0.81334   0.13293   0.45478   1.000
    Ga7     Ga   0.47804   0.62285   0.54659   1.000
    Ga8     Ga   0.26768   0.45484   0.41197   1.000
    Ga9     Ga   0.02479   0.54644   0.83050   1.000
    Ga10    Ga   0.67990   0.41219   0.13306   1.000
    Ga11    Ga   0.14475   0.16924   0.37718   1.000
    Ts12    Ts   0.16163   0.89518   0.52378   1.000
    Ts13    Ts   0.14743   0.81802   0.55987   1.000
    Ts14    Ts   0.21912   0.84350   0.56151   1.000
    Ts15    Ts   0.48704   0.35997   0.50299   1.000
    Ts16    Ts   0.48625   0.34918   0.44236   1.000
    Ts17    Ts   0.56010   0.36092   0.45275   1.000
    Ts18    Ts   0.54959   0.42800   0.41601   1.000
    Ts19    Ts   0.68593   0.52390   0.58132   1.000
    Ts20    Ts   0.78112   0.56150   0.59508   1.000
    Ts21    Ts   0.70768   0.55987   0.62242   1.000
    Ts22    Ts   0.01261   0.45295   0.18652   1.000
    Ts23    Ts   0.98983   0.50317   0.13700   1.000
    Ts24    Ts   0.92845   0.44261   0.20844   1.000
    Ts25    Ts   0.96564   0.41616   0.15613   1.000
    Ts26    Ts   0.26701   0.58116   0.89483   1.000
    Ts27    Ts   0.37616   0.59515   0.84348   1.000
    Ts28    Ts   0.32992   0.62226   0.81781   1.000
    Ts29    Ts   0.87822   0.84419   0.57199   1.000
    Ts30    Ts   0.87326   0.86303   0.64009   1.000
    Ts31    Ts   0.86291   0.79163   0.65081   1.000
    Ts32    Ts   0.80088   0.81382   0.63908   1.000
    Ts33    Ts   0.85256   0.18201   0.44013   1.000
    Ts34    Ts   0.78088   0.15653   0.43850   1.000
    Ts35    Ts   0.83836   0.10485   0.47623   1.000
    Ts36    Ts   0.45041   0.57203   0.58399   1.000
    Ts37    Ts   0.51296   0.64007   0.49702   1.000
    Ts38    Ts   0.51374   0.65086   0.55763   1.000
    Ts39    Ts   0.43990   0.63912   0.54725   1.000
    Ts40    Ts   0.21888   0.43853   0.40492   1.000
    Ts41    Ts   0.29231   0.44016   0.37757   1.000
    Ts42    Ts   0.31407   0.47613   0.41868   1.000
    Ts43    Ts   0.03435   0.58387   0.84387   1.000
    Ts44    Ts   0.98739   0.54708   0.81348   1.000
    Ts45    Ts   0.01016   0.49686   0.86300   1.000
    Ts46    Ts   0.07154   0.55743   0.79156   1.000
    Ts47    Ts   0.62384   0.40488   0.15651   1.000
    Ts48    Ts   0.67008   0.37778   0.18219   1.000
    Ts49    Ts   0.73299   0.41887   0.10517   1.000
    Ts50    Ts   0.12674   0.13701   0.35990   1.000
    Ts51    Ts   0.13708   0.20840   0.34918   1.000
    Ts52    Ts   0.19911   0.18621   0.36091   1.000
    Ts53    Ts   0.12177   0.15584   0.42799   1.000
loop_
    _geom_bond_atom_site_label_1
    _geom_bond_atom_site_label_2
    _geom_bond_distance
    _geom_bond_site_symmetry_2
    _ccdc_geom_bond_type
    Ga0    Ts12      0.66273      .   S
    Ga0    Ts13      0.64716      .   S
    Ga0    Ts14      0.68420      .   S
    Ga1    Ts15      0.62293      .   S
    Ga1    Ts16      0.62918      .   S
    Ga1    Ts17      0.63118      .   S
    Ga1    Ts18      0.62643      .   S
    Ga2    Ts19      0.66279      .   S
    Ga2    Ts20      0.68334      .   S
    Ga2    Ts21      0.64728      .   S
    Ga3    Ts22      0.63104  1_655   S
    Ga3    Ts23      0.62278      .   S
    Ga3    Ts24      0.62909      .   S
    Ga3    Ts25      0.62640      .   S
    Ga4    Ts26      0.66281      .   S
    Ga4    Ts27      0.68496      .   S
    Ga4    Ts28      0.64706      .   S
    Ga5    Ts29      0.62647      .   S
    Ga5    Ts30      0.62328      .   S
    Ga5    Ts31      0.62927      .   S
    Ga5    Ts32      0.63107      .   S
    Ga6    Ts33      0.64716      .   S
    Ga6    Ts34      0.68418      .   S
    Ga6    Ts35      0.66275      .   S
    Ga7    Ts36      0.62643      .   S
    Ga7    Ts37      0.62289      .   S
    Ga7    Ts38      0.62904      .   S
    Ga7    Ts39      0.63117      .   S
    Ga8    Ts40      0.68334      .   S
    Ga8    Ts41      0.64738      .   S
    Ga8    Ts42      0.66279      .   S
    Ga9    Ts43      0.62643      .   S
    Ga9    Ts44      0.63101  1_455   S
    Ga9    Ts45      0.62278      .   S
    Ga9    Ts46      0.62909      .   S
    Ga10   Ts47      0.68495      .   S
    Ga10   Ts48      0.64710      .   S
    Ga10   Ts49      0.66281      .   S
    Ga11   Ts50      0.62320      .   S
    Ga11   Ts51      0.62924      .   S
    Ga11   Ts52      0.63108      .   S
    Ga11   Ts53      0.62656      .   S
