# CIF file generated by openbabel 2.4.90, see http://openbabel.sf.net
data_I
_chemical_name_common ''
_cell_length_a 8.651
_cell_length_b 15.345
_cell_length_c 17.421
_cell_angle_alpha 90
_cell_angle_beta 90
_cell_angle_gamma 90.001
_space_group_name_H-M_alt 'P 1'
_space_group_name_Hall 'P 1'
loop_
    _symmetry_equiv_pos_as_xyz
    x,y,z
loop_
    _atom_site_label
    _atom_site_type_symbol
    _atom_site_fract_x
    _atom_site_fract_y
    _atom_site_fract_z
    _atom_site_occupancy
    O0      O    0.39269   0.18924   0.31586   1.000
    O1      O    0.10730   0.68923   0.68412   1.000
    O2      O    0.60730   0.81079   0.81585   1.000
    O3      O    0.89270   0.31079   0.18413   1.000
    O4      O    0.60730   0.81079   0.68412   1.000
    O5      O    0.89270   0.31079   0.31586   1.000
    O6      O    0.39269   0.18924   0.18413   1.000
    O7      O    0.10730   0.68923   0.81585   1.000
    O8      O    0.57959   0.25528   0.24999   1.000
    O9      O    0.92042   0.75527   0.74998   1.000
    O10     O    0.42040   0.74475   0.74998   1.000
    O11     O    0.07958   0.24476   0.24999   1.000
