# CIF file generated by openbabel 2.4.90, see http://openbabel.sf.net
data_I
_chemical_name_common ''
_cell_length_a 8.651
_cell_length_b 15.345
_cell_length_c 17.421
_cell_angle_alpha 90
_cell_angle_beta 90
_cell_angle_gamma 90.001
_space_group_name_H-M_alt 'P 1'
_space_group_name_Hall 'P 1'
loop_
    _symmetry_equiv_pos_as_xyz
    x,y,z
loop_
    _atom_site_label
    _atom_site_type_symbol
    _atom_site_fract_x
    _atom_site_fract_y
    _atom_site_fract_z
    _atom_site_occupancy
    Lv0     Lv   0.72395   0.43618   0.93690   1.000
    Lv1     Lv   0.94996   0.29007   0.24999   1.000
    Lv2     Lv   0.27605   0.56384   0.06308   1.000
    Lv3     Lv   0.55008   0.79002   0.74998   1.000
    Lv4     Lv   0.05003   0.70994   0.74998   1.000
    Lv5     Lv   0.22394   0.06385   0.93690   1.000
    Lv6     Lv   0.22395   0.06385   0.56307   1.000
    Lv7     Lv   0.27605   0.56384   0.43691   1.000
    Lv8     Lv   0.77606   0.93617   0.43692   1.000
    Lv9     Lv   0.44993   0.20999   0.25000   1.000
    Lv10    Lv   0.77606   0.93617   0.06308   1.000
    Lv11    Lv   0.72396   0.43617   0.56307   1.000
