# CIF file generated by openbabel 2.4.90, see http://openbabel.sf.net
data_I
_chemical_name_common ''
_cell_length_a 8.651
_cell_length_b 15.345
_cell_length_c 17.421
_cell_angle_alpha 90
_cell_angle_beta 90
_cell_angle_gamma 90.001
_space_group_name_H-M_alt 'P 1'
_space_group_name_Hall 'P 1'
loop_
    _symmetry_equiv_pos_as_xyz
    x,y,z
loop_
    _atom_site_label
    _atom_site_type_symbol
    _atom_site_fract_x
    _atom_site_fract_y
    _atom_site_fract_z
    _atom_site_occupancy
    C0      C    0.44499   0.17463   0.50291   1.000
    C1      C    0.13376   0.92633   0.62273   1.000
    C2      C    0.05501   0.67461   0.49708   1.000
    C3      C    0.36626   0.42635   0.37726   1.000
    C4      C    0.55501   0.82540   0.00000   1.000
    C5      C    0.86625   0.07369   0.12273   1.000
    C6      C    0.94500   0.32541   0.99709   1.000
    C7      C    0.63375   0.57367   0.87725   1.000
    C8      C    0.55502   0.82539   0.49707   1.000
    C9      C    0.86625   0.07369   0.37726   1.000
    C10     C    0.94499   0.32541   0.50290   1.000
    C11     C    0.63375   0.57367   0.62272   1.000
    C12     C    0.44499   0.17462   0.99709   1.000
    C13     C    0.13376   0.92633   0.87725   1.000
    C14     C    0.05500   0.67461   0.00000   1.000
    C15     C    0.36626   0.42635   0.12273   1.000
    O16     O    0.58620   0.15557   0.50318   1.000
    O17     O    0.39268   0.24306   0.46708   1.000
    O18     O    0.98857   0.91290   0.61967   1.000
    O19     O    0.23476   0.87331   0.64711   1.000
    O20     O    0.91380   0.65556   0.49679   1.000
    O21     O    0.10731   0.74305   0.53290   1.000
    O22     O    0.51145   0.41293   0.38031   1.000
    O23     O    0.26526   0.37332   0.35287   1.000
    O24     O    0.41381   0.84445   0.00320   1.000
    O25     O    0.60731   0.75696   0.96707   1.000
    O26     O    0.01143   0.08713   0.11968   1.000
    O27     O    0.76524   0.12671   0.14712   1.000
    O28     O    0.08619   0.34446   0.99679   1.000
    O29     O    0.89270   0.25697   0.03291   1.000
    O30     O    0.48856   0.58709   0.88030   1.000
    O31     O    0.73474   0.62670   0.85286   1.000
    O32     O    0.41380   0.84445   0.49680   1.000
    O33     O    0.60732   0.75696   0.53290   1.000
    O34     O    0.01143   0.08713   0.38031   1.000
    O35     O    0.76524   0.12671   0.35287   1.000
    O36     O    0.08620   0.34446   0.50319   1.000
    O37     O    0.89269   0.25697   0.46708   1.000
    O38     O    0.48856   0.58708   0.61967   1.000
    O39     O    0.73474   0.62670   0.64711   1.000
    O40     O    0.58619   0.15558   0.99678   1.000
    O41     O    0.39269   0.24306   0.03291   1.000
    O42     O    0.98857   0.91289   0.88030   1.000
    O43     O    0.23476   0.87331   0.85286   1.000
    O44     O    0.91381   0.65556   0.00319   1.000
    O45     O    0.10730   0.74305   0.96707   1.000
    O46     O    0.51145   0.41293   0.11968   1.000
    O47     O    0.26526   0.37332   0.14712   1.000
loop_
    _geom_bond_atom_site_label_1
    _geom_bond_atom_site_label_2
    _geom_bond_distance
    _geom_bond_site_symmetry_2
    _ccdc_geom_bond_type
    C4     O24       1.25731      .   S
    C4     O25       1.27938  1_554   S
    C14    O44       1.25718  1_455   S
    C14    O45       1.27933  1_554   S
    O41    C12       1.30272  1_554   S
    O29    C6        1.30271  1_554   S
    O26    C5        1.27392  1_455   S
    O46    C15       1.27393      .   S
    C5     O27       1.26728      .   S
    C15    O47       1.26726      .   S
    O35    C9        1.26728      .   S
    O23    C3        1.26727      .   S
    C9     O34       1.27392  1_655   S
    C3     O22       1.27393      .   S
    O17    C0        1.30272      .   S
    O37    C10       1.30272      .   S
    O20    C2        1.25606  1_655   S
    O32    C8        1.25617      .   S
    C8     O33       1.30273      .   S
    C2     O21       1.30272      .   S
    C10    O36       1.25605  1_655   S
    C0     O16       1.25616      .   S
    O18    C1        1.27394  1_655   S
    O38    C11       1.27393      .   S
    C11    O39       1.26727      .   S
    C1     O19       1.26727      .   S
    O43    C13       1.26728      .   S
    O31    C7        1.26728      .   S
    C13    O42       1.27392  1_455   S
    C7     O30       1.27392      .   S
    O40    C12       1.25607      .   S
    O28    C6        1.25595  1_455   S
