# CIF file generated by openbabel 2.4.90, see http://openbabel.sf.net
data_I
_chemical_name_common ''
_cell_length_a 8.651
_cell_length_b 15.345
_cell_length_c 17.421
_cell_angle_alpha 90
_cell_angle_beta 90
_cell_angle_gamma 90.001
_space_group_name_H-M_alt 'P 1'
_space_group_name_Hall 'P 1'
loop_
    _symmetry_equiv_pos_as_xyz
    x,y,z
loop_
    _atom_site_label
    _atom_site_type_symbol
    _atom_site_fract_x
    _atom_site_fract_y
    _atom_site_fract_z
    _atom_site_occupancy
    La0     La   0.85580   0.76476   0.61108   1.000
    La1     La   0.35579   0.73524   0.88889   1.000
    La2     La   0.14421   0.23526   0.11109   1.000
    La3     La   0.35579   0.73524   0.61108   1.000
    La4     La   0.14420   0.23526   0.38890   1.000
    La5     La   0.64421   0.26478   0.11109   1.000
    La6     La   0.85579   0.76476   0.88889   1.000
    C7      C    0.44499   0.17463   0.50291   1.000
    C8      C    0.13376   0.92633   0.62273   1.000
    C9      C    0.05501   0.67461   0.49708   1.000
    La10    La   0.64421   0.26478   0.38890   1.000
    C11     C    0.36626   0.42635   0.37726   1.000
    C12     C    0.55501   0.82540   0.00000   1.000
    C13     C    0.86625   0.07369   0.12273   1.000
    C14     C    0.94500   0.32541   0.99709   1.000
    C15     C    0.63375   0.57367   0.87725   1.000
    C16     C    0.55502   0.82539   0.49707   1.000
    C17     C    0.86625   0.07369   0.37726   1.000
    C18     C    0.94499   0.32541   0.50290   1.000
    C19     C    0.63375   0.57367   0.62272   1.000
    C20     C    0.44499   0.17462   0.99709   1.000
    C21     C    0.13376   0.92633   0.87725   1.000
    C22     C    0.05500   0.67461   0.00000   1.000
    C23     C    0.36626   0.42635   0.12273   1.000
    O24     O    0.58620   0.15557   0.50318   1.000
    O25     O    0.39268   0.24306   0.46708   1.000
    O26     O    0.98857   0.91290   0.61967   1.000
    O27     O    0.23476   0.87331   0.64711   1.000
    O28     O    0.91380   0.65556   0.49679   1.000
    O29     O    0.10731   0.74305   0.53290   1.000
    O30     O    0.51145   0.41293   0.38031   1.000
    O31     O    0.26526   0.37332   0.35287   1.000
    O32     O    0.41381   0.84445   0.00320   1.000
    O33     O    0.60731   0.75696   0.96707   1.000
    O34     O    0.01143   0.08713   0.11968   1.000
    O35     O    0.76524   0.12671   0.14712   1.000
    O36     O    0.08619   0.34446   0.99679   1.000
    O37     O    0.89270   0.25697   0.03291   1.000
    O38     O    0.48856   0.58709   0.88030   1.000
    O39     O    0.73474   0.62670   0.85286   1.000
    O40     O    0.41380   0.84445   0.49680   1.000
    O41     O    0.60732   0.75696   0.53290   1.000
    O42     O    0.01143   0.08713   0.38031   1.000
    O43     O    0.76524   0.12671   0.35287   1.000
    O44     O    0.08620   0.34446   0.50319   1.000
    O45     O    0.89269   0.25697   0.46708   1.000
    O46     O    0.48856   0.58708   0.61967   1.000
    O47     O    0.73474   0.62670   0.64711   1.000
    O48     O    0.58619   0.15558   0.99678   1.000
    O49     O    0.39269   0.24306   0.03291   1.000
    O50     O    0.98857   0.91289   0.88030   1.000
    O51     O    0.23476   0.87331   0.85286   1.000
    O52     O    0.91381   0.65556   0.00319   1.000
    O53     O    0.10730   0.74305   0.96707   1.000
    O54     O    0.51145   0.41293   0.11968   1.000
    O55     O    0.26526   0.37332   0.14712   1.000
loop_
    _geom_bond_atom_site_label_1
    _geom_bond_atom_site_label_2
    _geom_bond_distance
    _geom_bond_site_symmetry_2
    _ccdc_geom_bond_type
    C12    O32       1.25731      .   S
    C12    O33       1.27938  1_554   S
    C22    O52       1.25718  1_455   S
    C22    O53       1.27933  1_554   S
    O52    La6       2.65049  1_554   S
    O32    La1       2.65057  1_554   S
    O49    La2       2.54758      .   S
    O49    C20       1.30272  1_554   S
    O37    La5       2.54757      .   S
    O37    C14       1.30271  1_554   S
    La5    O54       2.55145      .   S
    La5    O35       2.44516      .   S
    La5    O48       2.65058  1_554   S
    La2    O34       2.55117      .   S
    La2    O55       2.44519      .   S
    La2    O36       2.65048  1_554   S
    O34    C13       1.27392  1_455   S
    O54    C23       1.27393      .   S
    C13    O35       1.26728      .   S
    C23    O55       1.26726      .   S
    O43    C17       1.26728      .   S
    O43    La10      2.44519      .   S
    O31    C11       1.26727      .   S
    O31    La4       2.44519      .   S
    C17    O42       1.27392  1_655   S
    C11    O30       1.27393      .   S
    O30    La10      2.55146      .   S
    O42    La4       2.55124      .   S
    La10   O45       2.54758      .   S
    La10   O24       2.65023      .   S
    La4    O25       2.54756      .   S
    La4    O44       2.65016      .   S
    O25    C7        1.30272      .   S
    O45    C18       1.30272      .   S
    O28    C9        1.25606  1_655   S
    O28    La0       2.65019      .   S
    O40    C16       1.25617      .   S
    O40    La3       2.65025      .   S
    C16    O41       1.30273      .   S
    C9     O29       1.30272      .   S
    C18    O44       1.25605  1_655   S
    C7     O24       1.25616      .   S
    O41    La0       2.54757      .   S
    O29    La3       2.54757      .   S
    La3    O46       2.55151      .   S
    La3    O27       2.44518      .   S
    La0    O26       2.55126      .   S
    La0    O47       2.44518      .   S
    O26    C8        1.27394  1_655   S
    O46    C19       1.27393      .   S
    C19    O47       1.26727      .   S
    C8     O27       1.26727      .   S
    O51    C21       1.26728      .   S
    O51    La1       2.44516      .   S
    O39    C15       1.26728      .   S
    O39    La6       2.44518      .   S
    C21    O50       1.27392  1_455   S
    C15    O38       1.27392      .   S
    O38    La1       2.55146      .   S
    O50    La6       2.55118      .   S
    La1    O53       2.54757      .   S
    La6    O33       2.54757      .   S
    O48    C20       1.25607      .   S
    O36    C14       1.25595  1_455   S
    O25    La10      2.58857      .   S
    O29    La0       2.58843  1_455   S
    O33    La1       2.58858      .   S
    O37    La2       2.58845  1_655   S
    O41    La3       2.58855      .   S
    O45    La4       2.58843  1_655   S
    O49    La5       2.58858      .   S
    O53    La6       2.58844  1_455   S
