# CIF file generated by openbabel 2.4.90, see http://openbabel.sf.net
data_I
_chemical_name_common ''
_cell_length_a 8.651
_cell_length_b 15.345
_cell_length_c 17.421
_cell_angle_alpha 90
_cell_angle_beta 90
_cell_angle_gamma 90.001
_space_group_name_H-M_alt 'P 1'
_space_group_name_Hall 'P 1'
loop_
    _symmetry_equiv_pos_as_xyz
    x,y,z
loop_
    _atom_site_label
    _atom_site_type_symbol
    _atom_site_fract_x
    _atom_site_fract_y
    _atom_site_fract_z
    _atom_site_occupancy
    Zr0     Zr   0.64421   0.26478   0.38890   1.000
    Zr1     Zr   0.85580   0.76476   0.61108   1.000
    Zr2     Zr   0.35579   0.73524   0.88889   1.000
    Zr3     Zr   0.14421   0.23526   0.11109   1.000
    Zr4     Zr   0.35579   0.73524   0.61108   1.000
    Zr5     Zr   0.14420   0.23526   0.38890   1.000
    Zr6     Zr   0.64421   0.26478   0.11109   1.000
    Zr7     Zr   0.85579   0.76476   0.88889   1.000
    N8      N    0.72395   0.43618   0.93690   1.000
    O9      O    0.69233   0.37547   0.99032   1.000
    N10     N    0.94996   0.29007   0.24999   1.000
    O11     O    0.09574   0.24238   0.28472   1.000
    O12     O    0.09574   0.24238   0.21527   1.000
    O13     O    0.95557   0.29191   0.33412   1.000
    O14     O    0.83058   0.29929   0.33412   1.000
    O15     O    0.83058   0.29929   0.16587   1.000
    O16     O    0.95558   0.29191   0.16587   1.000
    N17     N    0.27605   0.56384   0.06308   1.000
    O18     O    0.30767   0.62455   0.00966   1.000
    N19     N    0.55008   0.79002   0.74998   1.000
    O20     O    0.40425   0.74237   0.78471   1.000
    O21     O    0.40425   0.74237   0.71526   1.000
    O22     O    0.66943   0.79928   0.66586   1.000
    O23     O    0.54442   0.79190   0.66586   1.000
    O24     O    0.66942   0.79928   0.83411   1.000
    O25     O    0.54442   0.79190   0.83411   1.000
    N26     N    0.05003   0.70994   0.74998   1.000
    O27     O    0.04443   0.70811   0.66586   1.000
    O28     O    0.16943   0.70073   0.66586   1.000
    O29     O    0.90426   0.75764   0.78471   1.000
    O30     O    0.90426   0.75764   0.71526   1.000
    O31     O    0.04443   0.70811   0.83411   1.000
    O32     O    0.16942   0.70073   0.83411   1.000
    N33     N    0.22394   0.06385   0.93690   1.000
    O34     O    0.19232   0.12456   0.99032   1.000
    N35     N    0.22395   0.06385   0.56307   1.000
    O36     O    0.19232   0.12456   0.50966   1.000
    N37     N    0.27605   0.56384   0.43691   1.000
    O38     O    0.30767   0.62455   0.49033   1.000
    N39     N    0.77606   0.93617   0.43692   1.000
    O40     O    0.80768   0.87546   0.49032   1.000
    N41     N    0.44993   0.20999   0.25000   1.000
    O42     O    0.33057   0.20074   0.33412   1.000
    O43     O    0.45557   0.20812   0.33412   1.000
    O44     O    0.59575   0.25765   0.21527   1.000
    O45     O    0.59575   0.25765   0.28472   1.000
    O46     O    0.45557   0.20812   0.16587   1.000
    O47     O    0.33057   0.20074   0.16587   1.000
    N48     N    0.77606   0.93617   0.06308   1.000
    O49     O    0.80768   0.87546   0.00967   1.000
    N50     N    0.72396   0.43617   0.56307   1.000
    O51     O    0.69233   0.37547   0.50966   1.000
    C52     C    0.38099   0.40420   0.37015   1.000
    O53     O    0.34372   0.46011   0.39257   1.000
    O54     O    0.47941   0.37153   0.37738   1.000
    O55     O    0.29286   0.35425   0.37052   1.000
    C56     C    0.88097   0.09584   0.37015   1.000
    O57     O    0.79285   0.14580   0.37052   1.000
    O58     O    0.97940   0.12852   0.37738   1.000
    O59     O    0.84371   0.03993   0.39257   1.000
    C60     C    0.47462   0.19109   0.49106   1.000
    O61     O    0.38990   0.14798   0.51644   1.000
    O62     O    0.54491   0.20063   0.46855   1.000
    O63     O    0.37153   0.21513   0.45952   1.000
    O64     O    0.49654   0.22251   0.45952   1.000
    C65     C    0.97463   0.30895   0.49106   1.000
    O66     O    0.87154   0.28491   0.45952   1.000
    O67     O    0.99654   0.27753   0.45952   1.000
    O68     O    0.04492   0.29940   0.46855   1.000
    O69     O    0.88990   0.35205   0.51644   1.000
    C70     C    0.38099   0.40420   0.12984   1.000
    O71     O    0.47941   0.37153   0.12261   1.000
    O72     O    0.29286   0.35425   0.12947   1.000
    O73     O    0.34372   0.46011   0.10742   1.000
    C74     C    0.88097   0.09585   0.12984   1.000
    O75     O    0.79285   0.14580   0.12947   1.000
    O76     O    0.97940   0.12852   0.12261   1.000
    O77     O    0.84371   0.03993   0.10742   1.000
    C78     C    0.47462   0.19109   0.00893   1.000
    O79     O    0.37154   0.21512   0.04046   1.000
    O80     O    0.49654   0.22251   0.04046   1.000
    O81     O    0.54491   0.20063   0.03143   1.000
    O82     O    0.38989   0.14798   0.98354   1.000
    C83     C    0.97463   0.30895   0.00893   1.000
    O84     O    0.04491   0.29940   0.03143   1.000
    O85     O    0.88990   0.35205   0.98354   1.000
    O86     O    0.87154   0.28491   0.04046   1.000
    O87     O    0.99654   0.27753   0.04046   1.000
    C88     C    0.02537   0.69108   0.99009   1.000
    O89     O    0.11010   0.64797   0.01559   1.000
    O90     O    0.12846   0.71511   0.95903   1.000
    O91     O    0.00346   0.72249   0.95903   1.000
    O92     O    0.95509   0.70062   0.96806   1.000
    C93     C    0.11903   0.90418   0.87014   1.000
    O94     O    0.02061   0.87150   0.87737   1.000
    O95     O    0.15629   0.96009   0.89256   1.000
    O96     O    0.20715   0.85423   0.87051   1.000
    C97     C    0.52538   0.80893   0.99009   1.000
    O98     O    0.61011   0.85204   0.01560   1.000
    O99     O    0.45509   0.79939   0.96807   1.000
    O100    O    0.62847   0.78490   0.95903   1.000
    O101    O    0.50346   0.77752   0.95903   1.000
    C102    C    0.61902   0.59582   0.87014   1.000
    O103    O    0.52059   0.62849   0.87736   1.000
    O104    O    0.65629   0.53992   0.89256   1.000
    O105    O    0.70714   0.64578   0.87050   1.000
    C106    C    0.52538   0.80893   0.50892   1.000
    O107    O    0.61011   0.85204   0.48354   1.000
    O108    O    0.45509   0.79939   0.53143   1.000
    O109    O    0.62847   0.78490   0.54046   1.000
    O110    O    0.50347   0.77752   0.54046   1.000
    C111    C    0.11903   0.90418   0.62983   1.000
    O112    O    0.20715   0.85423   0.62946   1.000
    O113    O    0.15630   0.96009   0.60741   1.000
    O114    O    0.02061   0.87151   0.62260   1.000
    C115    C    0.02537   0.69107   0.50892   1.000
    O116    O    0.11010   0.64797   0.48354   1.000
    O117    O    0.95509   0.70062   0.53143   1.000
    O118    O    0.12846   0.71511   0.54046   1.000
    O119    O    0.00346   0.72249   0.54046   1.000
    C120    C    0.61902   0.59582   0.62983   1.000
    O121    O    0.70714   0.64577   0.62946   1.000
    O122    O    0.52060   0.62849   0.62260   1.000
    O123    O    0.65629   0.53992   0.60741   1.000
loop_
    _geom_bond_atom_site_label_1
    _geom_bond_atom_site_label_2
    _geom_bond_distance
    _geom_bond_site_symmetry_2
    _ccdc_geom_bond_type
    N8     O9        1.34484      .   S
    Zr6    O9        2.73589  1_554   S
    N10    O11       1.57856  1_655   S
    Zr5    O11       1.86591      .   S
    N10    O12       1.57857  1_655   S
    Zr3    O12       1.86591      .   S
    N10    O13       1.46666      .   S
    Zr5    O13       2.08068  1_455   S
    N10    O14       1.79851      .   S
    Zr0    O14       1.94690      .   S
    N10    O15       1.79849      .   S
    Zr6    O15       1.94689      .   S
    N10    O16       1.46665      .   S
    Zr3    O16       2.08071  1_455   S
    N17    O18       1.34484      .   S
    Zr2    O18       2.73588  1_556   S
    N19    O20       1.57869      .   S
    Zr2    O20       1.86591      .   S
    N19    O21       1.57870      .   S
    Zr4    O21       1.86589      .   S
    N19    O22       1.79835      .   S
    Zr1    O22       1.94701      .   S
    N19    O23       1.46669      .   S
    Zr4    O23       2.08076      .   S
    N19    O24       1.79833      .   S
    Zr7    O24       1.94699      .   S
    N19    O25       1.46668      .   S
    Zr2    O25       2.08076      .   S
    N26    O27       1.46664      .   S
    Zr1    O27       2.08068  1_655   S
    N26    O28       1.79856      .   S
    Zr4    O28       1.94690      .   S
    N26    O29       1.57856  1_455   S
    Zr7    O29       1.86591      .   S
    N26    O30       1.57855  1_455   S
    Zr1    O30       1.86591      .   S
    N26    O31       1.46665      .   S
    Zr7    O31       2.08069  1_655   S
    N26    O32       1.79856      .   S
    Zr2    O32       1.94688      .   S
    N33    O34       1.34487      .   S
    Zr3    O34       2.73598  1_554   S
    N35    O36       1.34480      .   S
    Zr5    O36       2.73578      .   S
    N37    O38       1.34476      .   S
    Zr4    O38       2.73561      .   S
    N39    O40       1.34479      .   S
    Zr1    O40       2.73572      .   S
    N41    O42       1.79841      .   S
    Zr5    O42       1.94697      .   S
    N41    O43       1.46667      .   S
    Zr0    O43       2.08077      .   S
    N41    O44       1.57869      .   S
    Zr6    O44       1.86591      .   S
    N41    O45       1.57867      .   S
    Zr0    O45       1.86591      .   S
    N41    O46       1.46668      .   S
    Zr6    O46       2.08079      .   S
    N41    O47       1.79841      .   S
    Zr3    O47       1.94695      .   S
    N48    O49       1.34487      .   S
    Zr7    O49       2.73600  1_556   S
    N50    O51       1.34479      .   S
    Zr0    O51       2.73568      .   S
    C52    O53       0.99618      .   S
    N37    O53       1.86376      .   S
    C52    O54       0.99608      .   S
    Zr0    O54       2.18087      .   S
    C52    O55       1.08116      .   S
    Zr5    O55       2.25612      .   S
    C56    O57       1.08111      .   S
    Zr0    O57       2.25606      .   S
    C56    O58       0.99610      .   S
    Zr5    O58       2.18081  1_455   S
    C56    O59       0.99631      .   S
    N39    O59       1.86397  1_565   S
    C60    O61       1.08180      .   S
    N35    O61       2.09462      .   S
    C60    O62       0.73821      .   S
    Zr0    O62       1.90581      .   S
    C60    O63       1.11049      .   S
    Zr5    O63       2.34026      .   S
    C60    O64       0.75506      .   S
    Zr0    O64       1.88853      .   S
    C65    O66       1.11046      .   S
    Zr0    O66       2.34024      .   S
    C65    O67       0.75503      .   S
    Zr5    O67       1.88845  1_455   S
    C65    O68       0.73816  1_655   S
    Zr5    O68       1.90574      .   S
    C65    O69       1.08179      .   S
    N50    O69       2.09460      .   S
    C70    O71       0.99609      .   S
    Zr6    O71       2.18089      .   S
    C70    O72       1.08115      .   S
    Zr3    O72       2.25612      .   S
    C70    O73       0.99618      .   S
    N17    O73       1.86376      .   S
    C74    O75       1.08109      .   S
    Zr6    O75       2.25602      .   S
    C74    O76       0.99610      .   S
    Zr3    O76       2.18079  1_455   S
    C74    O77       0.99631      .   S
    N48    O77       1.86396  1_565   S
    C78    O79       1.11051      .   S
    Zr3    O79       2.34029      .   S
    C78    O80       0.75511      .   S
    Zr6    O80       1.88859      .   S
    C78    O81       0.73818      .   S
    Zr6    O81       1.90595      .   S
    C78    O82       1.08185  1_554   S
    N33    O82       2.09472      .   S
    C83    O84       0.73815  1_655   S
    Zr3    O84       1.90589      .   S
    C83    O85       1.08184  1_554   S
    N8     O85       2.09469      .   S
    C83    O86       1.11048      .   S
    Zr6    O86       2.34025      .   S
    C83    O87       0.75509      .   S
    Zr3    O87       1.88852  1_455   S
    C88    O89       1.08270  1_556   S
    N17    O89       2.10045      .   S
    C88    O90       1.10635      .   S
    Zr2    O90       2.33585      .   S
    C88    O91       0.74900      .   S
    Zr7    O91       1.88306  1_655   S
    C88    O92       0.73372  1_455   S
    Zr7    O92       1.89979      .   S
    C93    O94       0.99610      .   S
    Zr7    O94       2.18079  1_655   S
    C93    O95       0.99631      .   S
    N33    O95       1.86397  1_545   S
    C93    O96       1.08109      .   S
    Zr2    O96       2.25602      .   S
    C97    O98       1.08272  1_556   S
    N48    O98       2.10046      .   S
    C97    O99       0.73376      .   S
    Zr2    O99       1.89985      .   S
    C97    O100      1.10638      .   S
    Zr7    O100      2.33588      .   S
    C97    O101      0.74903      .   S
    Zr2    O101      1.88314      .   S
    C102   O103      0.99609      .   S
    Zr2    O103      2.18090      .   S
    C102   O104      0.99618      .   S
    N8     O104      1.86377      .   S
    C102   O105      1.08114      .   S
    Zr7    O105      2.25610      .   S
    C106   O107      1.08181      .   S
    N39    O107      2.09462      .   S
    C106   O108      0.73821      .   S
    Zr4    O108      1.90581      .   S
    C106   O109      1.11049      .   S
    Zr1    O109      2.34027      .   S
    C106   O110      0.75506      .   S
    Zr4    O110      1.88853      .   S
    C111   O112      1.08112      .   S
    Zr4    O112      2.25607      .   S
    C111   O113      0.99631      .   S
    N35    O113      1.86397  1_545   S
    C111   O114      0.99610      .   S
    Zr1    O114      2.18082  1_655   S
    C115   O116      1.08179      .   S
    N37    O116      2.09460      .   S
    C115   O117      0.73817  1_455   S
    Zr1    O117      1.90575      .   S
    C115   O118      1.11046      .   S
    Zr4    O118      2.34023      .   S
    C115   O119      0.75504      .   S
    Zr1    O119      1.88845  1_655   S
    C120   O121      1.08116      .   S
    Zr1    O121      2.25613      .   S
    C120   O122      0.99609      .   S
    Zr4    O122      2.18091      .   S
    C120   O123      0.99618      .   S
    N50    O123      1.86376      .   S
