# CIF file generated by openbabel 2.4.90, see http://openbabel.sf.net
data_I
_chemical_name_common ''
_cell_length_a 8.651
_cell_length_b 15.345
_cell_length_c 17.421
_cell_angle_alpha 90
_cell_angle_beta 90
_cell_angle_gamma 90.001
_space_group_name_H-M_alt 'P 1'
_space_group_name_Hall 'P 1'
loop_
    _symmetry_equiv_pos_as_xyz
    x,y,z
loop_
    _atom_site_label
    _atom_site_type_symbol
    _atom_site_fract_x
    _atom_site_fract_y
    _atom_site_fract_z
    _atom_site_occupancy
    Zr0     Zr   0.64421   0.26478   0.38890   1.000
    Zr1     Zr   0.85580   0.76476   0.61108   1.000
    Zr2     Zr   0.35579   0.73524   0.88889   1.000
    Zr3     Zr   0.14421   0.23526   0.11109   1.000
    Zr4     Zr   0.35579   0.73524   0.61108   1.000
    Zr5     Zr   0.14420   0.23526   0.38890   1.000
    Zr6     Zr   0.64421   0.26478   0.11109   1.000
    Zr7     Zr   0.85579   0.76476   0.88889   1.000
    Zr8     Zr   0.44499   0.17463   0.50291   1.000
    Zr9     Zr   0.13376   0.92633   0.62273   1.000
    Zr10    Zr   0.05501   0.67461   0.49708   1.000
    Zr11    Zr   0.36626   0.42635   0.37726   1.000
    Zr12    Zr   0.55501   0.82540   0.00000   1.000
    Zr13    Zr   0.86625   0.07369   0.12273   1.000
    Zr14    Zr   0.94500   0.32541   0.99709   1.000
    Zr15    Zr   0.63375   0.57367   0.87725   1.000
    Zr16    Zr   0.55502   0.82539   0.49707   1.000
    Zr17    Zr   0.86625   0.07369   0.37726   1.000
    Zr18    Zr   0.94499   0.32541   0.50290   1.000
    Zr19    Zr   0.63375   0.57367   0.62272   1.000
    Zr20    Zr   0.44499   0.17462   0.99709   1.000
    Zr21    Zr   0.13376   0.92633   0.87725   1.000
    Zr22    Zr   0.05500   0.67461   0.00000   1.000
    Zr23    Zr   0.36626   0.42635   0.12273   1.000
    Zr24    Zr   0.58620   0.15557   0.50318   1.000
    Zr25    Zr   0.39268   0.24306   0.46708   1.000
    Zr26    Zr   0.98857   0.91290   0.61967   1.000
    Zr27    Zr   0.23476   0.87331   0.64711   1.000
    Zr28    Zr   0.91380   0.65556   0.49679   1.000
    Zr29    Zr   0.10731   0.74305   0.53290   1.000
    Zr30    Zr   0.51145   0.41293   0.38031   1.000
    Zr31    Zr   0.26526   0.37332   0.35287   1.000
    Zr32    Zr   0.41381   0.84445   0.00320   1.000
    Zr33    Zr   0.60731   0.75696   0.96707   1.000
    Zr34    Zr   0.01143   0.08713   0.11968   1.000
    Zr35    Zr   0.76524   0.12671   0.14712   1.000
    Zr36    Zr   0.08619   0.34446   0.99679   1.000
    Zr37    Zr   0.89270   0.25697   0.03291   1.000
    Zr38    Zr   0.48856   0.58709   0.88030   1.000
    Zr39    Zr   0.73474   0.62670   0.85286   1.000
    Zr40    Zr   0.41380   0.84445   0.49680   1.000
    Zr41    Zr   0.60732   0.75696   0.53290   1.000
    Zr42    Zr   0.01143   0.08713   0.38031   1.000
    Zr43    Zr   0.76524   0.12671   0.35287   1.000
    Zr44    Zr   0.08620   0.34446   0.50319   1.000
    Zr45    Zr   0.89269   0.25697   0.46708   1.000
    Zr46    Zr   0.48856   0.58708   0.61967   1.000
    Zr47    Zr   0.73474   0.62670   0.64711   1.000
    Zr48    Zr   0.58619   0.15558   0.99678   1.000
    Zr49    Zr   0.39269   0.24306   0.03291   1.000
    Zr50    Zr   0.98857   0.91289   0.88030   1.000
    Zr51    Zr   0.23476   0.87331   0.85286   1.000
    Zr52    Zr   0.91381   0.65556   0.00319   1.000
    Zr53    Zr   0.10730   0.74305   0.96707   1.000
    Zr54    Zr   0.51145   0.41293   0.11968   1.000
    Zr55    Zr   0.26526   0.37332   0.14712   1.000
    O56     O    0.48441   0.83492   0.00160   1.000
    O57     O    0.58116   0.79118   0.98353   1.000
    O58     O    0.98441   0.66509   0.00160   1.000
    O59     O    0.08115   0.70883   0.98353   1.000
    O60     O    0.88480   0.71016   0.94604   1.000
    O61     O    0.38480   0.78984   0.94604   1.000
    O62     O    0.26845   0.23916   0.07200   1.000
    O63     O    0.41884   0.20884   0.01500   1.000
    O64     O    0.76845   0.26088   0.07200   1.000
    O65     O    0.91885   0.29119   0.01500   1.000
    O66     O    0.57783   0.33886   0.11538   1.000
    O67     O    0.70473   0.19575   0.12910   1.000
    O68     O    0.61520   0.21018   0.05394   1.000
    O69     O    0.07782   0.16119   0.11538   1.000
    O70     O    0.20473   0.30429   0.12910   1.000
    O71     O    0.11520   0.28986   0.05394   1.000
    O72     O    0.93884   0.08041   0.12120   1.000
    O73     O    0.43885   0.41964   0.12121   1.000
    O74     O    0.81574   0.10020   0.13493   1.000
    O75     O    0.31576   0.39984   0.13493   1.000
    O76     O    0.81574   0.10020   0.36506   1.000
    O77     O    0.70473   0.19575   0.37089   1.000
    O78     O    0.31576   0.39984   0.36507   1.000
    O79     O    0.20473   0.30429   0.37089   1.000
    O80     O    0.93884   0.08041   0.37878   1.000
    O81     O    0.43885   0.41964   0.37879   1.000
    O82     O    0.57783   0.33886   0.38461   1.000
    O83     O    0.07782   0.16119   0.38461   1.000
    O84     O    0.76845   0.26088   0.42799   1.000
    O85     O    0.61521   0.21018   0.44604   1.000
    O86     O    0.26844   0.23916   0.42799   1.000
    O87     O    0.11520   0.28986   0.44604   1.000
    O88     O    0.41884   0.20885   0.48499   1.000
    O89     O    0.91884   0.29119   0.48499   1.000
    O90     O    0.98440   0.66509   0.49694   1.000
    O91     O    0.88480   0.71016   0.55394   1.000
    O92     O    0.48441   0.83492   0.49693   1.000
    O93     O    0.38480   0.78984   0.55394   1.000
    O94     O    0.58117   0.79118   0.51499   1.000
    O95     O    0.08116   0.70883   0.51499   1.000
    O96     O    0.01560   0.33493   0.50304   1.000
    O97     O    0.51559   0.16510   0.50304   1.000
    O98     O    0.73156   0.76086   0.57199   1.000
    O99     O    0.23155   0.73914   0.57199   1.000
    O100    O    0.42218   0.66116   0.61537   1.000
    O101    O    0.29528   0.80427   0.62909   1.000
    O102    O    0.92219   0.83883   0.61537   1.000
    O103    O    0.79527   0.69573   0.62909   1.000
    O104    O    0.06117   0.91962   0.62120   1.000
    O105    O    0.56115   0.58038   0.62120   1.000
    O106    O    0.68425   0.60019   0.63491   1.000
    O107    O    0.18426   0.89982   0.63492   1.000
    O108    O    0.18426   0.89982   0.86505   1.000
    O109    O    0.29527   0.80427   0.87087   1.000
    O110    O    0.68425   0.60019   0.86505   1.000
    O111    O    0.79527   0.69573   0.87087   1.000
    O112    O    0.06116   0.91961   0.87877   1.000
    O113    O    0.56115   0.58038   0.87877   1.000
    O114    O    0.42217   0.66117   0.88459   1.000
    O115    O    0.92218   0.83883   0.88460   1.000
    O116    O    0.23155   0.73915   0.92798   1.000
    O117    O    0.73155   0.76086   0.92798   1.000
    O118    O    0.51559   0.16510   0.99694   1.000
    O119    O    0.01560   0.33494   0.99694   1.000
    O120    O    0.51845   0.25392   0.42799   1.000
    O121    O    0.98155   0.75391   0.57199   1.000
    O122    O    0.48155   0.74610   0.92798   1.000
    O123    O    0.01845   0.24612   0.07200   1.000
    O124    O    0.48155   0.74610   0.57199   1.000
    O125    O    0.01845   0.24612   0.42799   1.000
    O126    O    0.51845   0.25392   0.07200   1.000
    O127    O    0.98155   0.75391   0.92798   1.000
    N128    N    0.72395   0.43618   0.93690   1.000
    O129    O    0.69356   0.48402   0.91497   1.000
    O130    O    0.69233   0.37547   0.99032   1.000
    O131    O    0.80517   0.39516   0.95816   1.000
    N132    N    0.94996   0.29007   0.24999   1.000
    O133    O    0.09574   0.24238   0.28472   1.000
    O134    O    0.09574   0.24238   0.21527   1.000
    O135    O    0.95557   0.29191   0.33412   1.000
    O136    O    0.83058   0.29929   0.33412   1.000
    O137    O    0.83058   0.29929   0.16587   1.000
    O138    O    0.95558   0.29191   0.16587   1.000
    N139    N    0.27605   0.56384   0.06308   1.000
    O140    O    0.30644   0.51601   0.08500   1.000
    O141    O    0.30767   0.62455   0.00966   1.000
    O142    O    0.19483   0.60486   0.04110   1.000
    N143    N    0.55008   0.79002   0.74998   1.000
    O144    O    0.40425   0.74237   0.78471   1.000
    O145    O    0.40425   0.74237   0.71526   1.000
    O146    O    0.66943   0.79928   0.66586   1.000
    O147    O    0.54442   0.79190   0.66586   1.000
    O148    O    0.66942   0.79928   0.83411   1.000
    O149    O    0.54442   0.79190   0.83411   1.000
    N150    N    0.05003   0.70994   0.74998   1.000
    O151    O    0.04443   0.70811   0.66586   1.000
    O152    O    0.16943   0.70073   0.66586   1.000
    O153    O    0.90426   0.75764   0.78471   1.000
    O154    O    0.90426   0.75764   0.71526   1.000
    O155    O    0.04443   0.70811   0.83411   1.000
    O156    O    0.16942   0.70073   0.83411   1.000
    N157    N    0.22394   0.06385   0.93690   1.000
    O158    O    0.30516   0.10487   0.95816   1.000
    O159    O    0.19232   0.12456   0.99032   1.000
    O160    O    0.19356   0.01600   0.91498   1.000
    N161    N    0.22395   0.06385   0.56307   1.000
    O162    O    0.19232   0.12456   0.50966   1.000
    O163    O    0.19356   0.01601   0.58499   1.000
    O164    O    0.30517   0.10488   0.54182   1.000
    N165    N    0.27605   0.56384   0.43691   1.000
    O166    O    0.30644   0.51601   0.41499   1.000
    O167    O    0.30767   0.62455   0.49033   1.000
    O168    O    0.19483   0.60486   0.45817   1.000
    N169    N    0.77606   0.93617   0.43692   1.000
    O170    O    0.69484   0.89515   0.45817   1.000
    O171    O    0.80768   0.87546   0.49032   1.000
    O172    O    0.80644   0.98402   0.41499   1.000
    N173    N    0.44993   0.20999   0.25000   1.000
    O174    O    0.33057   0.20074   0.33412   1.000
    O175    O    0.45557   0.20812   0.33412   1.000
    O176    O    0.59575   0.25765   0.21527   1.000
    O177    O    0.59575   0.25765   0.28472   1.000
    O178    O    0.45557   0.20812   0.16587   1.000
    O179    O    0.33057   0.20074   0.16587   1.000
    N180    N    0.77606   0.93617   0.06308   1.000
    O181    O    0.69484   0.89515   0.04110   1.000
    O182    O    0.80768   0.87546   0.00967   1.000
    O183    O    0.80645   0.98402   0.08501   1.000
    N184    N    0.72396   0.43617   0.56307   1.000
    O185    O    0.69233   0.37547   0.50966   1.000
    O186    O    0.80518   0.39516   0.54182   1.000
    O187    O    0.69357   0.48401   0.58500   1.000
loop_
    _geom_bond_atom_site_label_1
    _geom_bond_atom_site_label_2
    _geom_bond_distance
    _geom_bond_site_symmetry_2
    _ccdc_geom_bond_type
    Zr12   O56       0.62866      .   S
    Zr32   O56       0.62866      .   S
    Zr12   O57       0.63969  1_554   S
    Zr33   O57       0.63969      .   S
    Zr22   O58       0.62859  1_455   S
    Zr52   O58       0.62859      .   S
    Zr22   O59       0.63966  1_554   S
    Zr53   O59       0.63966      .   S
    Zr52   O60       1.32525  1_554   S
    Zr7    O60       1.32525      .   S
    Zr32   O61       1.32529  1_554   S
    Zr2    O61       1.32529      .   S
    Zr49   O62       1.27379      .   S
    Zr3    O62       1.27379      .   S
    Zr49   O63       0.65136      .   S
    Zr20   O63       0.65136  1_556   S
    Zr37   O64       1.27378      .   S
    Zr6    O64       1.27378      .   S
    Zr37   O65       0.65136      .   S
    Zr14   O65       0.65136  1_556   S
    Zr6    O66       1.27573      .   S
    Zr54   O66       1.27573      .   S
    Zr6    O67       1.22258      .   S
    Zr35   O67       1.22258      .   S
    Zr6    O68       1.32529      .   S
    Zr48   O68       1.32529  1_556   S
    Zr3    O69       1.27559      .   S
    Zr34   O69       1.27559      .   S
    Zr3    O70       1.22259      .   S
    Zr55   O70       1.22259      .   S
    Zr3    O71       1.32524      .   S
    Zr36   O71       1.32524  1_556   S
    Zr34   O72       0.63696  1_455   S
    Zr13   O72       0.63696      .   S
    Zr54   O73       0.63696      .   S
    Zr23   O73       0.63696      .   S
    Zr13   O74       0.63364      .   S
    Zr35   O74       0.63364      .   S
    Zr23   O75       0.63363      .   S
    Zr55   O75       0.63363      .   S
    Zr43   O76       0.63364      .   S
    Zr17   O76       0.63364      .   S
    Zr43   O77       1.22259      .   S
    Zr0    O77       1.22259      .   S
    Zr31   O78       0.63364      .   S
    Zr11   O78       0.63364      .   S
    Zr31   O79       1.22259      .   S
    Zr5    O79       1.22259      .   S
    Zr17   O80       0.63696      .   S
    Zr42   O80       0.63696  1_455   S
    Zr11   O81       0.63697      .   S
    Zr30   O81       0.63697      .   S
    Zr30   O82       1.27573      .   S
    Zr0    O82       1.27573      .   S
    Zr42   O83       1.27562      .   S
    Zr5    O83       1.27562      .   S
    Zr0    O84       1.27379      .   S
    Zr45   O84       1.27379      .   S
    Zr0    O85       1.32511      .   S
    Zr24   O85       1.32511      .   S
    Zr5    O86       1.27378      .   S
    Zr25   O86       1.27378      .   S
    Zr5    O87       1.32508      .   S
    Zr44   O87       1.32508      .   S
    Zr25   O88       0.65136      .   S
    Zr8    O88       0.65136      .   S
    Zr45   O89       0.65136      .   S
    Zr18   O89       0.65136      .   S
    Zr28   O90       0.62803      .   S
    Zr10   O90       0.62803  1_455   S
    Zr28   O91       1.32509      .   S
    Zr1    O91       1.32509      .   S
    Zr40   O92       0.62809      .   S
    Zr16   O92       0.62809      .   S
    Zr40   O93       1.32512      .   S
    Zr4    O93       1.32512      .   S
    Zr16   O94       0.65136      .   S
    Zr41   O94       0.65136      .   S
    Zr10   O95       0.65136      .   S
    Zr29   O95       0.65136      .   S
    Zr18   O96       0.62802  1_655   S
    Zr44   O96       0.62802      .   S
    Zr8    O97       0.62808      .   S
    Zr24   O97       0.62808      .   S
    Zr41   O98       1.27379      .   S
    Zr1    O98       1.27379      .   S
    Zr29   O99       1.27379      .   S
    Zr4    O99       1.27379      .   S
    Zr4    O100      1.27575      .   S
    Zr46   O100      1.27575      .   S
    Zr4    O101      1.22259      .   S
    Zr27   O101      1.22259      .   S
    Zr1    O102      1.27563      .   S
    Zr26   O102      1.27563      .   S
    Zr1    O103      1.22259      .   S
    Zr47   O103      1.22259      .   S
    Zr26   O104      0.63697  1_655   S
    Zr9    O104      0.63697      .   S
    Zr46   O105      0.63696      .   S
    Zr19   O105      0.63696      .   S
    Zr19   O106      0.63363      .   S
    Zr47   O106      0.63363      .   S
    Zr9    O107      0.63364      .   S
    Zr27   O107      0.63364      .   S
    Zr51   O108      0.63364      .   S
    Zr21   O108      0.63364      .   S
    Zr51   O109      1.22258      .   S
    Zr2    O109      1.22258      .   S
    Zr39   O110      0.63364      .   S
    Zr15   O110      0.63364      .   S
    Zr39   O111      1.22259      .   S
    Zr7    O111      1.22259      .   S
    Zr21   O112      0.63696      .   S
    Zr50   O112      0.63696  1_655   S
    Zr15   O113      0.63696      .   S
    Zr38   O113      0.63696      .   S
    Zr38   O114      1.27573      .   S
    Zr2    O114      1.27573      .   S
    Zr50   O115      1.27559      .   S
    Zr7    O115      1.27559      .   S
    Zr2    O116      1.27379      .   S
    Zr53   O116      1.27379      .   S
    Zr7    O117      1.27378      .   S
    Zr33   O117      1.27378      .   S
    Zr48   O118      0.62804      .   S
    Zr20   O118      0.62804      .   S
    Zr36   O119      0.62798      .   S
    Zr14   O119      0.62798  1_655   S
    Zr25   O120      1.29428      .   S
    Zr0    O120      1.29428      .   S
    Zr29   O121      1.29421  1_455   S
    Zr1    O121      1.29421      .   S
    Zr33   O122      1.29429      .   S
    Zr2    O122      1.29429      .   S
    Zr37   O123      1.29423  1_655   S
    Zr3    O123      1.29423      .   S
    Zr41   O124      1.29428      .   S
    Zr4    O124      1.29428      .   S
    Zr45   O125      1.29421  1_655   S
    Zr5    O125      1.29421      .   S
    Zr49   O126      1.29429      .   S
    Zr6    O126      1.29429      .   S
    Zr53   O127      1.29422  1_455   S
    Zr7    O127      1.29422      .   S
    N128   O129      0.86827      .   S
    Zr15   O129      1.61013      .   S
    N128   O130      1.34484      .   S
    Zr6    O130      2.73589  1_554   S
    N128   O131      1.01344      .   S
    Zr14   O131      1.75177      .   S
    N132   O133      1.57856  1_655   S
    Zr5    O133      1.86591      .   S
    N132   O134      1.57857  1_655   S
    Zr3    O134      1.86591      .   S
    N132   O135      1.46666      .   S
    Zr5    O135      2.08068  1_455   S
    N132   O136      1.79851      .   S
    Zr0    O136      1.94690      .   S
    N132   O137      1.79849      .   S
    Zr6    O137      1.94689      .   S
    N132   O138      1.46665      .   S
    Zr3    O138      2.08071  1_455   S
    N139   O140      0.86827      .   S
    Zr23   O140      1.61013      .   S
    N139   O141      1.34484      .   S
    Zr2    O141      2.73588  1_556   S
    N139   O142      1.01812      .   S
    Zr22   O142      1.76676      .   S
    N143   O144      1.57869      .   S
    Zr2    O144      1.86591      .   S
    N143   O145      1.57870      .   S
    Zr4    O145      1.86589      .   S
    N143   O146      1.79835      .   S
    Zr1    O146      1.94701      .   S
    N143   O147      1.46669      .   S
    Zr4    O147      2.08076      .   S
    N143   O148      1.79833      .   S
    Zr7    O148      1.94699      .   S
    N143   O149      1.46668      .   S
    Zr2    O149      2.08076      .   S
    N150   O151      1.46664      .   S
    Zr1    O151      2.08068  1_655   S
    N150   O152      1.79856      .   S
    Zr4    O152      1.94690      .   S
    N150   O153      1.57856  1_455   S
    Zr7    O153      1.86591      .   S
    N150   O154      1.57855  1_455   S
    Zr1    O154      1.86591      .   S
    N150   O155      1.46665      .   S
    Zr7    O155      2.08069  1_655   S
    N150   O156      1.79856      .   S
    Zr2    O156      1.94688      .   S
    N157   O158      1.01345      .   S
    Zr20   O158      1.75179      .   S
    N157   O159      1.34487      .   S
    Zr3    O159      2.73598  1_554   S
    N157   O160      0.86834      .   S
    Zr21   O160      1.61035  1_565   S
    N161   O162      1.34480      .   S
    Zr5    O162      2.73578      .   S
    N161   O163      0.86835      .   S
    Zr9    O163      1.61035  1_565   S
    N161   O164      1.01340      .   S
    Zr8    O164      1.75162      .   S
    N165   O166      0.86826      .   S
    Zr11   O166      1.61012      .   S
    N165   O167      1.34476      .   S
    Zr4    O167      2.73561      .   S
    N165   O168      1.01339      .   S
    Zr10   O168      1.75161      .   S
    N169   O170      1.01340      .   S
    Zr16   O170      1.75163      .   S
    N169   O171      1.34479      .   S
    Zr1    O171      2.73572      .   S
    N169   O172      0.86835      .   S
    Zr17   O172      1.61035  1_545   S
    N173   O174      1.79841      .   S
    Zr5    O174      1.94697      .   S
    N173   O175      1.46667      .   S
    Zr0    O175      2.08077      .   S
    N173   O176      1.57869      .   S
    Zr6    O176      1.86591      .   S
    N173   O177      1.57867      .   S
    Zr0    O177      1.86591      .   S
    N173   O178      1.46668      .   S
    Zr6    O178      2.08079      .   S
    N173   O179      1.79841      .   S
    Zr3    O179      1.94695      .   S
    N180   O181      1.01811      .   S
    Zr12   O181      1.76675      .   S
    N180   O182      1.34487      .   S
    Zr7    O182      2.73600  1_556   S
    N180   O183      0.86834      .   S
    Zr13   O183      1.61035  1_545   S
    N184   O185      1.34479      .   S
    Zr0    O185      2.73568      .   S
    N184   O186      1.01339      .   S
    Zr18   O186      1.75161      .   S
    N184   O187      0.86827      .   S
    Zr19   O187      1.61012      .   S
