# CIF file generated by openbabel 2.4.90, see http://openbabel.sf.net
data_I
_chemical_name_common ''
_cell_length_a 16.985
_cell_length_b 20.631
_cell_length_c 14.176
_cell_angle_alpha 67.192
_cell_angle_beta 75.133
_cell_angle_gamma 76.554
_space_group_name_H-M_alt 'P 1'
_space_group_name_Hall 'P 1'
loop_
    _symmetry_equiv_pos_as_xyz
    x,y,z
loop_
    _atom_site_label
    _atom_site_type_symbol
    _atom_site_fract_x
    _atom_site_fract_y
    _atom_site_fract_z
    _atom_site_occupancy
    Zn0     Zn   0.46414   0.71716   0.15355   1.000
    Zn1     Zn   0.96415   0.21716   0.15353   1.000
    Zn2     Zn   0.96413   0.71716   0.15354   1.000
    Zn3     Zn   0.03587   0.28284   0.84691   1.000
    Zn4     Zn   0.03586   0.78284   0.84690   1.000
    Zn5     Zn   0.53588   0.28285   0.84690   1.000
    Zn6     Zn   0.53588   0.78284   0.84692   1.000
    Zn7     Zn   0.46414   0.21717   0.15353   1.000
