# CIF file generated by openbabel 2.4.90, see http://openbabel.sf.net
data_I
_chemical_name_common ''
_cell_length_a 16.985
_cell_length_b 20.631
_cell_length_c 14.176
_cell_angle_alpha 67.192
_cell_angle_beta 75.133
_cell_angle_gamma 76.554
_space_group_name_H-M_alt 'P 1'
_space_group_name_Hall 'P 1'
loop_
    _symmetry_equiv_pos_as_xyz
    x,y,z
loop_
    _atom_site_label
    _atom_site_type_symbol
    _atom_site_fract_x
    _atom_site_fract_y
    _atom_site_fract_z
    _atom_site_occupancy
    N0      N    0.75000   1.00000   0.00028   1.000
    N1      N    0.24999   0.50000   0.00027   1.000
    N2      N    0.25000   0.99999   0.00029   1.000
    N3      N    0.75000   0.49999   0.00026   1.000
    N4      N    0.00001   0.00001   0.00023   1.000
    N5      N    0.50001   0.50001   0.00022   1.000
    N6      N    0.50002   0.00001   0.00022   1.000
    N7      N    0.00000   0.50001   0.00022   1.000
    N8      N    0.74999   0.75000   0.50022   1.000
    N9      N    0.24999   0.25001   0.50021   1.000
    N10     N    0.24999   0.75000   0.50023   1.000
    N11     N    0.74999   0.25001   0.50020   1.000
    Zr12    Zr   0.46414   0.71716   0.15355   1.000
    O13     O    0.47236   0.80078   0.10433   1.000
    O14     O    0.55000   0.65751   0.11828   1.000
    O15     O    0.39801   0.72462   0.25392   1.000
    O16     O    0.47067   0.65514   0.10629   1.000
    Zr17    Zr   0.46414   0.21717   0.15353   1.000
    O18     O    0.47236   0.30079   0.10431   1.000
    O19     O    0.55001   0.15752   0.11827   1.000
    O20     O    0.47068   0.15514   0.10627   1.000
    O21     O    0.39801   0.22463   0.25390   1.000
    Zr22    Zr   0.96413   0.71716   0.15354   1.000
    O23     O    0.89801   0.72463   0.25391   1.000
    O24     O    0.05000   0.65752   0.11827   1.000
    O25     O    0.97235   0.80079   0.10432   1.000
    O26     O    0.97067   0.65514   0.10628   1.000
    Zr27    Zr   0.53588   0.78284   0.84692   1.000
    O28     O    0.45001   0.84248   0.88222   1.000
    O29     O    0.52935   0.84487   0.89417   1.000
    O30     O    0.60199   0.77537   0.74654   1.000
    O31     O    0.52767   0.69922   0.89614   1.000
    Zr32    Zr   0.96415   0.21716   0.15353   1.000
    O33     O    0.89802   0.22463   0.25390   1.000
    O34     O    0.97236   0.30079   0.10431   1.000
    O35     O    0.05001   0.15752   0.11827   1.000
    O36     O    0.97068   0.15514   0.10627   1.000
    Zr37    Zr   0.03586   0.78284   0.84690   1.000
    O38     O    0.02765   0.69922   0.89612   1.000
    O39     O    0.02933   0.84487   0.89416   1.000
    O40     O    0.95000   0.84248   0.88220   1.000
    O41     O    0.10198   0.77538   0.74653   1.000
    Zr42    Zr   0.03587   0.28284   0.84691   1.000
    O43     O    0.02933   0.34487   0.89417   1.000
    O44     O    0.95000   0.34248   0.88220   1.000
    O45     O    0.02766   0.19922   0.89613   1.000
    O46     O    0.10199   0.27538   0.74653   1.000
    Zr47    Zr   0.53588   0.28285   0.84690   1.000
    O48     O    0.60199   0.27538   0.74652   1.000
    O49     O    0.45000   0.34248   0.88220   1.000
    O50     O    0.52934   0.34487   0.89416   1.000
    O51     O    0.52767   0.19922   0.89612   1.000
loop_
    _geom_bond_atom_site_label_1
    _geom_bond_atom_site_label_2
    _geom_bond_distance
    _geom_bond_site_symmetry_2
    _ccdc_geom_bond_type
    Zr12   O13       1.61609      .   S
    N6     O13       3.89001  1_545   S
    Zr12   O14       1.77746      .   S
    N3     O14       4.58962      .   S
    Zr12   O15       1.60597      .   S
    N10    O15       3.88421      .   S
    Zr12   O16       1.63059      .   S
    N5     O16       3.91870      .   S
    Zr17   O18       1.61603      .   S
    N5     O18       3.88990      .   S
    Zr17   O19       1.77741      .   S
    N0     O19       4.58945  1_565   S
    Zr17   O20       1.63059      .   S
    N6     O20       3.91868      .   S
    Zr17   O21       1.60598      .   S
    N9     O21       3.88422      .   S
    Zr22   O23       1.60595      .   S
    N8     O23       3.88415      .   S
    Zr22   O24       1.77740  1_655   S
    N1     O24       4.58947      .   S
    Zr22   O25       1.61605      .   S
    N4     O25       3.88992  1_445   S
    Zr22   O26       1.63060      .   S
    N7     O26       3.91872  1_455   S
    Zr27   O28       1.77761      .   S
    N2     O28       4.58995  1_554   S
    Zr27   O29       1.63072      .   S
    N6     O29       3.91888  1_544   S
    Zr27   O30       1.60597      .   S
    N8     O30       3.88421      .   S
    Zr27   O31       1.61592      .   S
    N5     O31       3.88964  1_554   S
    Zr32   O33       1.60598      .   S
    N11    O33       3.88422      .   S
    Zr32   O34       1.61601      .   S
    N7     O34       3.88984  1_455   S
    Zr32   O35       1.77736  1_655   S
    N2     O35       4.58939  1_565   S
    Zr32   O36       1.63060      .   S
    N4     O36       3.91871  1_455   S
    Zr37   O38       1.61594      .   S
    N7     O38       3.88967  1_554   S
    Zr37   O39       1.63077      .   S
    N4     O39       3.91897  1_544   S
    Zr37   O40       1.77756  1_455   S
    N0     O40       4.58989  1_554   S
    Zr37   O41       1.60591      .   S
    N10    O41       3.88405      .   S
    Zr42   O43       1.63071      .   S
    N7     O43       3.91889  1_554   S
    Zr42   O44       1.77749  1_455   S
    N3     O44       4.58980  1_554   S
    Zr42   O45       1.61595      .   S
    N4     O45       3.88971  1_554   S
    Zr42   O46       1.60599      .   S
    N9     O46       3.88422      .   S
    Zr47   O48       1.60597      .   S
    N11    O48       3.88416      .   S
    Zr47   O49       1.77761      .   S
    N1     O49       4.58995  1_554   S
    Zr47   O50       1.63073      .   S
    N5     O50       3.91892  1_554   S
    Zr47   O51       1.61596      .   S
    N6     O51       3.88973  1_554   S
