# CIF file generated by openbabel 2.4.90, see http://openbabel.sf.net
data_I
_chemical_name_common ''
_cell_length_a 16.985
_cell_length_b 20.631
_cell_length_c 14.176
_cell_angle_alpha 67.192
_cell_angle_beta 75.133
_cell_angle_gamma 76.554
_space_group_name_H-M_alt 'P 1'
_space_group_name_Hall 'P 1'
loop_
    _symmetry_equiv_pos_as_xyz
    x,y,z
loop_
    _atom_site_label
    _atom_site_type_symbol
    _atom_site_fract_x
    _atom_site_fract_y
    _atom_site_fract_z
    _atom_site_occupancy
    C0      C    0.46414   0.21717   0.15353   1.000
    C1      C    0.46414   0.71716   0.15355   1.000
    C2      C    0.96415   0.21716   0.15353   1.000
    C3      C    0.96413   0.71716   0.15354   1.000
    C4      C    0.03587   0.28284   0.84691   1.000
    C5      C    0.03586   0.78284   0.84690   1.000
    C6      C    0.53588   0.28285   0.84690   1.000
    C7      C    0.53588   0.78284   0.84692   1.000
    C8      C    0.11466   0.09751   0.09940   1.000
    C9      C    0.11465   0.59752   0.09938   1.000
    C10     C    0.61466   0.09751   0.09940   1.000
    C11     C    0.61465   0.59749   0.09943   1.000
    C12     C    0.25975   0.16591   0.23490   1.000
    C13     C    0.25973   0.66590   0.23493   1.000
    C14     C    0.75976   0.16590   0.23492   1.000
    C15     C    0.75976   0.66589   0.23492   1.000
    C16     C    0.09748   0.23585   0.26100   1.000
    C17     C    0.09747   0.73583   0.26101   1.000
    C18     C    0.59749   0.23584   0.26101   1.000
    C19     C    0.59750   0.73583   0.26101   1.000
    C20     C    0.32902   0.10035   0.09083   1.000
    C21     C    0.32901   0.60033   0.09083   1.000
    C22     C    0.82902   0.10033   0.09084   1.000
    C23     C    0.82902   0.60030   0.09087   1.000
    C24     C    0.29730   0.02901   0.20222   1.000
    C25     C    0.29728   0.52900   0.20221   1.000
    C26     C    0.79729   0.02900   0.20222   1.000
    C27     C    0.79727   0.52897   0.20224   1.000
    C28     C    0.21600   0.45914   0.26998   1.000
    C29     C    0.21606   0.95914   0.27000   1.000
    C30     C    0.71599   0.45911   0.26999   1.000
    C31     C    0.71605   0.95912   0.26999   1.000
    C32     C    0.19213   0.38619   0.25333   1.000
    C33     C    0.19214   0.88620   0.25330   1.000
    C34     C    0.69212   0.38616   0.25332   1.000
    C35     C    0.69214   0.88619   0.25333   1.000
    C36     C    0.29571   0.39196   0.24452   1.000
    C37     C    0.29574   0.89195   0.24453   1.000
    C38     C    0.79571   0.39194   0.24453   1.000
    C39     C    0.79573   0.89194   0.24451   1.000
    C40     C    0.28230   0.17066   0.96361   1.000
    C41     C    0.28229   0.67066   0.96361   1.000
    C42     C    0.78229   0.17066   0.96363   1.000
    C43     C    0.78230   0.67064   0.96365   1.000
    C44     C    0.34478   0.15042   0.85526   1.000
    C45     C    0.34479   0.65042   0.85526   1.000
    C46     C    0.84478   0.15043   0.85527   1.000
    C47     C    0.84480   0.65041   0.85529   1.000
    C48     C    0.23801   0.18023   0.85847   1.000
    C49     C    0.23802   0.68024   0.85846   1.000
    C50     C    0.73801   0.18024   0.85848   1.000
    C51     C    0.73803   0.68023   0.85849   1.000
    C52     C    0.46173   0.01961   0.16957   1.000
    C53     C    0.46170   0.51960   0.16958   1.000
    C54     C    0.96172   0.01960   0.16958   1.000
    C55     C    0.96170   0.51960   0.16958   1.000
    C56     C    0.03370   0.10160   0.83630   1.000
    C57     C    0.03368   0.60161   0.83631   1.000
    C58     C    0.53370   0.10160   0.83629   1.000
    C59     C    0.53370   0.60161   0.83630   1.000
    C60     C    0.38538   0.28815   0.47079   1.000
    C61     C    0.38540   0.78809   0.47085   1.000
    C62     C    0.88538   0.28816   0.47078   1.000
    C63     C    0.88540   0.78810   0.47080   1.000
    C64     C    0.22430   0.20111   0.37787   1.000
    C65     C    0.22428   0.70114   0.37785   1.000
    C66     C    0.72430   0.20111   0.37780   1.000
    C67     C    0.72429   0.70113   0.37786   1.000
    C68     C    0.38535   0.40247   0.90113   1.000
    C69     C    0.38535   0.90246   0.90116   1.000
    C70     C    0.88536   0.40247   0.90113   1.000
    C71     C    0.88536   0.90248   0.90112   1.000
    C72     C    0.24024   0.33412   0.76558   1.000
    C73     C    0.24024   0.83412   0.76561   1.000
    C74     C    0.74025   0.33413   0.76557   1.000
    C75     C    0.74024   0.83411   0.76560   1.000
    C76     C    0.40250   0.26418   0.73948   1.000
    C77     C    0.40250   0.76417   0.73950   1.000
    C78     C    0.90251   0.26417   0.73948   1.000
    C79     C    0.90249   0.76416   0.73951   1.000
    C80     C    0.17099   0.39965   0.90974   1.000
    C81     C    0.17100   0.89962   0.90980   1.000
    C82     C    0.67100   0.39965   0.90971   1.000
    C83     C    0.67100   0.89965   0.90970   1.000
    C84     C    0.20269   0.47100   0.79837   1.000
    C85     C    0.20267   0.97098   0.79842   1.000
    C86     C    0.70271   0.47101   0.79835   1.000
    C87     C    0.70269   0.97100   0.79838   1.000
    C88     C    0.28400   0.04084   0.73062   1.000
    C89     C    0.28403   0.54085   0.73059   1.000
    C90     C    0.78400   0.04087   0.73060   1.000
    C91     C    0.78404   0.54086   0.73000   1.000
    C92     C    0.30779   0.11383   0.74726   1.000
    C93     C    0.30777   0.61385   0.74725   1.000
    C94     C    0.80779   0.11385   0.74726   1.000
    C95     C    0.80779   0.61385   0.74727   1.000
    C96     C    0.20423   0.10797   0.75610   1.000
    C97     C    0.20422   0.60796   0.75607   1.000
    C98     C    0.70422   0.10799   0.75609   1.000
    C99     C    0.70424   0.60797   0.75600   1.000
    C100    C    0.21771   0.32932   0.03697   1.000
    C101    C    0.21774   0.82931   0.03702   1.000
    C102    C    0.71771   0.32932   0.03694   1.000
    C103    C    0.71773   0.82932   0.03697   1.000
    C104    C    0.15519   0.34958   0.14529   1.000
    C105    C    0.15522   0.84957   0.14534   1.000
    C106    C    0.65519   0.34957   0.14527   1.000
    C107    C    0.65521   0.84957   0.14530   1.000
    C108    C    0.26195   0.31975   0.14214   1.000
    C109    C    0.26198   0.81974   0.14218   1.000
    C110    C    0.76195   0.31974   0.14212   1.000
    C111    C    0.76198   0.81974   0.14213   1.000
    C112    C    0.03829   0.48042   0.83089   1.000
    C113    C    0.03829   0.98041   0.83090   1.000
    C114    C    0.53830   0.48043   0.83089   1.000
    C115    C    0.53830   0.98041   0.83089   1.000
    C116    C    0.46631   0.39842   0.16417   1.000
    C117    C    0.46632   0.89842   0.16418   1.000
    C118    C    0.96631   0.39841   0.16417   1.000
    C119    C    0.96631   0.89842   0.16418   1.000
    C120    C    0.11459   0.21187   0.52963   1.000
    C121    C    0.11457   0.71191   0.52961   1.000
    C122    C    0.61459   0.21188   0.52962   1.000
    C123    C    0.61458   0.71189   0.52962   1.000
    C124    C    0.27567   0.29892   0.62255   1.000
    C125    C    0.27569   0.79886   0.62261   1.000
    C126    C    0.77567   0.29893   0.62254   1.000
    C127    C    0.77569   0.79887   0.62259   1.000
    C128    C    0.12980   0.12586   0.14084   1.000
    C129    C    0.12978   0.62586   0.14084   1.000
    C130    C    0.62980   0.12586   0.14085   1.000
    C131    C    0.62979   0.62584   0.14087   1.000
    C132    C    0.20481   0.16194   0.21287   1.000
    C133    C    0.20480   0.66192   0.21288   1.000
    C134    C    0.70482   0.16193   0.21288   1.000
    C135    C    0.70482   0.66191   0.21288   1.000
    C136    C    0.12563   0.19698   0.22364   1.000
    C137    C    0.12561   0.69697   0.22364   1.000
    C138    C    0.62564   0.19697   0.22365   1.000
    C139    C    0.62563   0.69696   0.22365   1.000
    C140    C    0.27877   0.06866   0.13055   1.000
    C141    C    0.27876   0.56865   0.13054   1.000
    C142    C    0.77877   0.06865   0.13055   1.000
    C143    C    0.77876   0.56863   0.13057   1.000
    C144    C    0.26272   0.03329   0.06320   1.000
    C145    C    0.26270   0.53329   0.06321   1.000
    C146    C    0.76272   0.03329   0.06322   1.000
    C147    C    0.76270   0.53327   0.06323   1.000
    C148    C    0.24386   0.46334   0.10891   1.000
    C149    C    0.24388   0.96333   0.10894   1.000
    C150    C    0.74386   0.46332   0.10892   1.000
    C151    C    0.74388   0.96333   0.10892   1.000
    C152    C    0.26756   0.07062   0.95541   1.000
    C153    C    0.26756   0.57063   0.95539   1.000
    C154    C    0.76756   0.07063   0.95540   1.000
    C155    C    0.76756   0.57062   0.95541   1.000
    C156    C    0.23652   0.42365   0.22464   1.000
    C157    C    0.23655   0.92364   0.22467   1.000
    C158    C    0.73651   0.42363   0.22465   1.000
    C159    C    0.73654   0.92363   0.22460   1.000
    C160    C    0.28390   0.14656   0.90654   1.000
    C161    C    0.28390   0.64656   0.90653   1.000
    C162    C    0.78390   0.14656   0.90654   1.000
    C163    C    0.78391   0.64655   0.90656   1.000
    C164    C    0.49381   0.13992   0.00617   1.000
    C165    C    0.49380   0.63992   0.00610   1.000
    C166    C    0.99381   0.13992   0.00617   1.000
    C167    C    0.99378   0.63992   0.00610   1.000
    C168    C    0.49698   0.06753   0.00323   1.000
    C169    C    0.49697   0.56753   0.00324   1.000
    C170    C    0.99699   0.06752   0.00324   1.000
    C171    C    0.99696   0.56752   0.00324   1.000
    C172    C    0.47832   0.01044   0.09575   1.000
    C173    C    0.47830   0.51043   0.09576   1.000
    C174    C    0.97832   0.01043   0.09576   1.000
    C175    C    0.97830   0.51043   0.09576   1.000
    C176    C    0.01909   0.05675   0.90744   1.000
    C177    C    0.01907   0.55675   0.90744   1.000
    C178    C    0.51910   0.05675   0.90740   1.000
    C179    C    0.51909   0.55676   0.90744   1.000
    C180    C    0.37831   0.23960   0.32366   1.000
    C181    C    0.37831   0.73958   0.32368   1.000
    C182    C    0.87831   0.23960   0.32366   1.000
    C183    C    0.87831   0.73959   0.32360   1.000
    C184    C    0.31168   0.24423   0.41476   1.000
    C185    C    0.31168   0.74421   0.41478   1.000
    C186    C    0.81168   0.24423   0.41475   1.000
    C187    C    0.81168   0.74421   0.41477   1.000
    C188    C    0.32577   0.27165   0.48443   1.000
    C189    C    0.32578   0.77161   0.48448   1.000
    C190    C    0.82577   0.27166   0.48442   1.000
    C191    C    0.82578   0.77162   0.48446   1.000
    C192    C    0.23525   0.22260   0.43155   1.000
    C193    C    0.23524   0.72261   0.43155   1.000
    C194    C    0.73525   0.22261   0.43155   1.000
    C195    C    0.73524   0.72261   0.43155   1.000
    C196    C    0.37021   0.37414   0.85967   1.000
    C197    C    0.37021   0.87413   0.85970   1.000
    C198    C    0.87021   0.37414   0.85966   1.000
    C199    C    0.87021   0.87414   0.85967   1.000
    C200    C    0.29518   0.33809   0.78763   1.000
    C201    C    0.29518   0.83808   0.78766   1.000
    C202    C    0.79519   0.33809   0.78762   1.000
    C203    C    0.79518   0.83808   0.78765   1.000
    C204    C    0.37436   0.30304   0.77685   1.000
    C205    C    0.37436   0.80303   0.77687   1.000
    C206    C    0.87437   0.30304   0.77685   1.000
    C207    C    0.87436   0.80303   0.77687   1.000
    C208    C    0.22123   0.43134   0.87002   1.000
    C209    C    0.22123   0.93132   0.87007   1.000
    C210    C    0.72124   0.43134   0.87001   1.000
    C211    C    0.72124   0.93134   0.87003   1.000
    C212    C    0.23729   0.46669   0.93736   1.000
    C213    C    0.23730   0.96668   0.93740   1.000
    C214    C    0.73730   0.46669   0.93736   1.000
    C215    C    0.73730   0.96669   0.93737   1.000
    C216    C    0.25613   0.03664   0.89169   1.000
    C217    C    0.25612   0.53665   0.89166   1.000
    C218    C    0.75613   0.03665   0.89167   1.000
    C219    C    0.75613   0.53665   0.89167   1.000
    C220    C    0.23244   0.42936   0.04510   1.000
    C221    C    0.23246   0.92935   0.04521   1.000
    C222    C    0.73244   0.42935   0.04517   1.000
    C223    C    0.73245   0.92935   0.04518   1.000
    C224    C    0.26344   0.07633   0.77596   1.000
    C225    C    0.26345   0.57634   0.77593   1.000
    C226    C    0.76344   0.07635   0.77590   1.000
    C227    C    0.76346   0.57634   0.77594   1.000
    C228    C    0.21609   0.35343   0.09405   1.000
    C229    C    0.21611   0.85342   0.09409   1.000
    C230    C    0.71608   0.35342   0.09403   1.000
    C231    C    0.71611   0.85342   0.09405   1.000
    C232    C    0.00623   0.36010   0.99426   1.000
    C233    C    0.00622   0.86009   0.99420   1.000
    C234    C    0.50624   0.36010   0.99426   1.000
    C235    C    0.50625   0.86009   0.99428   1.000
    C236    C    0.00304   0.43249   0.99723   1.000
    C237    C    0.00304   0.93249   0.99723   1.000
    C238    C    0.50305   0.43249   0.99723   1.000
    C239    C    0.50306   0.93249   0.99723   1.000
    C240    C    0.02170   0.48958   0.90471   1.000
    C241    C    0.02170   0.98958   0.90470   1.000
    C242    C    0.52171   0.48959   0.90471   1.000
    C243    C    0.52171   0.98958   0.90471   1.000
    C244    C    0.48092   0.44327   0.09303   1.000
    C245    C    0.48094   0.94326   0.09303   1.000
    C246    C    0.98092   0.44326   0.09303   1.000
    C247    C    0.98093   0.94326   0.09303   1.000
    C248    C    0.12166   0.26041   0.67670   1.000
    C249    C    0.12166   0.76041   0.67677   1.000
    C250    C    0.62166   0.26042   0.67675   1.000
    C251    C    0.62167   0.76040   0.67677   1.000
    C252    C    0.18829   0.25579   0.58566   1.000
    C253    C    0.18829   0.75578   0.58568   1.000
    C254    C    0.68829   0.25580   0.58565   1.000
    C255    C    0.68829   0.75579   0.58567   1.000
    C256    C    0.17421   0.22837   0.51598   1.000
    C257    C    0.17419   0.72838   0.51598   1.000
    C258    C    0.67421   0.22838   0.51598   1.000
    C259    C    0.67420   0.72837   0.51599   1.000
    C260    C    0.26473   0.27742   0.56886   1.000
    C261    C    0.26473   0.77738   0.56890   1.000
    C262    C    0.76473   0.27743   0.56885   1.000
    C263    C    0.76474   0.77738   0.56890   1.000
    C264    C    0.07933   0.17435   0.17795   1.000
    C265    C    0.07932   0.67434   0.17794   1.000
    C266    C    0.57934   0.17434   0.17795   1.000
    C267    C    0.57933   0.67433   0.17797   1.000
    C268    C    0.20610   0.11692   0.16069   1.000
    C269    C    0.20608   0.61691   0.16069   1.000
    C270    C    0.70610   0.11691   0.16070   1.000
    C271    C    0.70610   0.61690   0.16071   1.000
    C272    C    0.42066   0.32566   0.82255   1.000
    C273    C    0.42067   0.82565   0.82257   1.000
    C274    C    0.92067   0.32565   0.82250   1.000
    C275    C    0.92066   0.82566   0.82255   1.000
    C276    C    0.29390   0.38309   0.83982   1.000
    C277    C    0.29390   0.88308   0.83985   1.000
    C278    C    0.79391   0.38309   0.83981   1.000
    C279    C    0.79391   0.88309   0.83983   1.000
    C280    C    0.44470   0.15530   0.08207   1.000
    C281    C    0.44468   0.65530   0.08209   1.000
    C282    C    0.94470   0.15529   0.08208   1.000
    C283    C    0.94467   0.65529   0.08209   1.000
    C284    C    0.04194   0.17953   0.93403   1.000
    C285    C    0.04192   0.67953   0.93405   1.000
    C286    C    0.54195   0.17953   0.93400   1.000
    C287    C    0.54195   0.67953   0.93405   1.000
    C288    C    0.36340   0.21122   0.26312   1.000
    C289    C    0.36339   0.71121   0.26313   1.000
    C290    C    0.86340   0.21121   0.26312   1.000
    C291    C    0.86340   0.71121   0.26313   1.000
    C292    C    0.44431   0.26268   0.30740   1.000
    C293    C    0.44431   0.76266   0.30743   1.000
    C294    C    0.94431   0.26269   0.30740   1.000
    C295    C    0.94431   0.76267   0.30742   1.000
    C296    C    0.05533   0.34474   0.91833   1.000
    C297    C    0.05532   0.84473   0.91835   1.000
    C298    C    0.55533   0.34474   0.91833   1.000
    C299    C    0.55534   0.84473   0.91835   1.000
    C300    C    0.45811   0.32047   0.06640   1.000
    C301    C    0.45813   0.82047   0.06643   1.000
    C302    C    0.95811   0.32047   0.06640   1.000
    C303    C    0.95810   0.82047   0.06642   1.000
    C304    C    0.13658   0.28882   0.73727   1.000
    C305    C    0.13657   0.78881   0.73728   1.000
    C306    C    0.63658   0.28882   0.73726   1.000
    C307    C    0.63658   0.78881   0.73728   1.000
    C308    C    0.05568   0.23731   0.69305   1.000
    C309    C    0.05567   0.73730   0.69306   1.000
    C310    C    0.55568   0.23732   0.69304   1.000
    C311    C    0.55568   0.73730   0.69307   1.000
    O312    O    0.49540   0.10373   0.00470   1.000
    O313    O    0.48765   0.03898   0.04949   1.000
    O314    O    0.50804   0.06214   0.95532   1.000
    O315    O    0.49538   0.60372   0.00467   1.000
    O316    O    0.48764   0.53898   0.04950   1.000
    O317    O    0.50803   0.56214   0.95534   1.000
    O318    O    0.99540   0.10372   0.00470   1.000
    O319    O    0.98765   0.03898   0.04950   1.000
    O320    O    0.00804   0.06214   0.95534   1.000
    O321    O    0.99537   0.60372   0.00467   1.000
    O322    O    0.98763   0.53898   0.04950   1.000
    O323    O    0.00802   0.56214   0.95534   1.000
    O324    O    0.46924   0.64761   0.04409   1.000
    O325    O    0.51787   0.65972   0.97008   1.000
    O326    O    0.96923   0.64761   0.04409   1.000
    O327    O    0.01785   0.65973   0.97008   1.000
    O328    O    0.46925   0.14761   0.04412   1.000
    O329    O    0.51788   0.15973   0.97008   1.000
    O330    O    0.96926   0.14761   0.04412   1.000
    O331    O    0.01788   0.15972   0.97010   1.000
    O332    O    0.71690   0.34137   0.06549   1.000
    O333    O    0.21690   0.34138   0.06551   1.000
    O334    O    0.71692   0.84137   0.06551   1.000
    O335    O    0.21693   0.84136   0.06555   1.000
    O336    O    0.22426   0.39139   0.06957   1.000
    O337    O    0.23815   0.44635   0.07701   1.000
    O338    O    0.23487   0.44802   0.99123   1.000
    O339    O    0.72426   0.39138   0.06960   1.000
    O340    O    0.73815   0.44633   0.07705   1.000
    O341    O    0.73487   0.44802   0.99127   1.000
    O342    O    0.72428   0.89139   0.06961   1.000
    O343    O    0.73817   0.94634   0.07705   1.000
    O344    O    0.73488   0.94802   0.99128   1.000
    O345    O    0.22428   0.89138   0.06965   1.000
    O346    O    0.23817   0.94634   0.07708   1.000
    O347    O    0.23488   0.94801   0.99130   1.000
    O348    O    0.25330   0.99831   0.08607   1.000
    O349    O    0.27075   0.05097   0.09687   1.000
    O350    O    0.26514   0.05196   0.00930   1.000
    O351    O    0.25328   0.49831   0.08606   1.000
    O352    O    0.27073   0.55097   0.09687   1.000
    O353    O    0.26513   0.55196   0.00930   1.000
    O354    O    0.75330   0.99831   0.08607   1.000
    O355    O    0.77075   0.05097   0.09688   1.000
    O356    O    0.76514   0.05196   0.00931   1.000
    O357    O    0.75328   0.49830   0.08607   1.000
    O358    O    0.77073   0.55095   0.09690   1.000
    O359    O    0.76513   0.55194   0.00932   1.000
    O360    O    0.96113   0.26882   0.10996   1.000
    O361    O    0.98217   0.34028   0.03033   1.000
    O362    O    0.46113   0.26882   0.10996   1.000
    O363    O    0.48217   0.34029   0.03033   1.000
    O364    O    0.96112   0.76882   0.10998   1.000
    O365    O    0.98216   0.84028   0.03031   1.000
    O366    O    0.46113   0.76881   0.10999   1.000
    O367    O    0.48219   0.84028   0.03036   1.000
    O368    O    0.45442   0.18623   0.11780   1.000
    O369    O    0.95442   0.18623   0.11780   1.000
    O370    O    0.95440   0.68623   0.11781   1.000
    O371    O    0.45441   0.68623   0.11782   1.000
    O372    O    0.30388   0.58449   0.11068   1.000
    O373    O    0.30390   0.08450   0.11069   1.000
    O374    O    0.80390   0.08449   0.11069   1.000
    O375    O    0.80389   0.58447   0.11072   1.000
    O376    O    0.97962   0.97685   0.09439   1.000
    O377    O    0.97362   0.92084   0.12860   1.000
    O378    O    0.99199   0.93787   0.04513   1.000
    O379    O    0.97961   0.47685   0.09439   1.000
    O380    O    0.97362   0.42084   0.12860   1.000
    O381    O    0.99198   0.43787   0.04513   1.000
    O382    O    0.47963   0.97685   0.09439   1.000
    O383    O    0.47363   0.92084   0.12860   1.000
    O384    O    0.49200   0.93788   0.04513   1.000
    O385    O    0.47961   0.47685   0.09439   1.000
    O386    O    0.47361   0.42084   0.12860   1.000
    O387    O    0.49199   0.43788   0.04513   1.000
    O388    O    0.73901   0.33658   0.11807   1.000
    O389    O    0.68563   0.35150   0.11965   1.000
    O390    O    0.73904   0.83658   0.11809   1.000
    O391    O    0.68566   0.85150   0.11968   1.000
    O392    O    0.23902   0.33659   0.11809   1.000
    O393    O    0.18564   0.35150   0.11967   1.000
    O394    O    0.23905   0.83658   0.11814   1.000
    O395    O    0.18566   0.85149   0.11971   1.000
    O396    O    0.47003   0.01502   0.13266   1.000
    O397    O    0.47000   0.51502   0.13267   1.000
    O398    O    0.97000   0.51501   0.13267   1.000
    O399    O    0.97002   0.01502   0.13267   1.000
    O400    O    0.12222   0.61169   0.12011   1.000
    O401    O    0.62223   0.11168   0.12012   1.000
    O402    O    0.12223   0.11169   0.12012   1.000
    O403    O    0.62222   0.61166   0.12015   1.000
    O404    O    0.24019   0.44349   0.16678   1.000
    O405    O    0.74019   0.44347   0.16678   1.000
    O406    O    0.74021   0.94348   0.16676   1.000
    O407    O    0.24022   0.94349   0.16681   1.000
    O408    O    0.24242   0.59278   0.14561   1.000
    O409    O    0.28802   0.54883   0.16637   1.000
    O410    O    0.74244   0.09278   0.14562   1.000
    O411    O    0.78803   0.04882   0.16639   1.000
    O412    O    0.24244   0.09279   0.14562   1.000
    O413    O    0.28804   0.04884   0.16639   1.000
    O414    O    0.74243   0.59276   0.14564   1.000
    O415    O    0.78802   0.54880   0.16640   1.000
    O416    O    0.16795   0.12139   0.15076   1.000
    O417    O    0.10457   0.15010   0.15940   1.000
    O418    O    0.16793   0.62139   0.15076   1.000
    O419    O    0.10455   0.65010   0.15939   1.000
    O420    O    0.66795   0.12138   0.15077   1.000
    O421    O    0.60457   0.15010   0.15940   1.000
    O422    O    0.66794   0.62137   0.15079   1.000
    O423    O    0.60456   0.65009   0.15942   1.000
    O424    O    0.52174   0.19575   0.16574   1.000
    O425    O    0.41377   0.21419   0.20833   1.000
    O426    O    0.02174   0.19576   0.16574   1.000
    O427    O    0.91378   0.21419   0.20833   1.000
    O428    O    0.02173   0.69575   0.16574   1.000
    O429    O    0.91376   0.71419   0.20833   1.000
    O430    O    0.52174   0.69574   0.16576   1.000
    O431    O    0.41376   0.71419   0.20834   1.000
    O432    O    0.20544   0.63942   0.18678   1.000
    O433    O    0.20546   0.13943   0.18678   1.000
    O434    O    0.70546   0.13942   0.18679   1.000
    O435    O    0.70546   0.63940   0.18680   1.000
    O436    O    0.10247   0.68566   0.20079   1.000
    O437    O    0.10248   0.18566   0.20079   1.000
    O438    O    0.60249   0.18566   0.20080   1.000
    O439    O    0.60248   0.68565   0.20081   1.000
    O440    O    0.16522   0.17946   0.21826   1.000
    O441    O    0.23228   0.16393   0.22388   1.000
    O442    O    0.16521   0.67945   0.21826   1.000
    O443    O    0.23227   0.66391   0.22390   1.000
    O444    O    0.66523   0.17945   0.21826   1.000
    O445    O    0.73229   0.16391   0.22390   1.000
    O446    O    0.66523   0.67944   0.21826   1.000
    O447    O    0.73229   0.66390   0.22390   1.000
    O448    O    0.11155   0.21642   0.24232   1.000
    O449    O    0.11154   0.71640   0.24232   1.000
    O450    O    0.61156   0.21640   0.24233   1.000
    O451    O    0.61157   0.71640   0.24233   1.000
    O452    O    0.76614   0.90779   0.23455   1.000
    O453    O    0.71434   0.90491   0.23896   1.000
    O454    O    0.72630   0.94138   0.24729   1.000
    O455    O    0.26612   0.40781   0.23458   1.000
    O456    O    0.21432   0.40492   0.23899   1.000
    O457    O    0.22626   0.44139   0.24731   1.000
    O458    O    0.76611   0.40778   0.23459   1.000
    O459    O    0.71432   0.40490   0.23899   1.000
    O460    O    0.72625   0.44137   0.24732   1.000
    O461    O    0.26615   0.90780   0.23460   1.000
    O462    O    0.21435   0.90492   0.23899   1.000
    O463    O    0.22630   0.94139   0.24733   1.000
    O464    O    0.37085   0.22541   0.29339   1.000
    O465    O    0.87086   0.22541   0.29339   1.000
    O466    O    0.37085   0.72540   0.29341   1.000
    O467    O    0.87085   0.72540   0.29336   1.000
    O468    O    0.91131   0.25114   0.31553   1.000
    O469    O    0.41131   0.25114   0.31553   1.000
    O470    O    0.91131   0.75113   0.31551   1.000
    O471    O    0.41131   0.75112   0.31556   1.000
    O472    O    0.84500   0.74190   0.36918   1.000
    O473    O    0.34500   0.24191   0.36921   1.000
    O474    O    0.84500   0.24192   0.36921   1.000
    O475    O    0.34499   0.74190   0.36923   1.000
    O476    O    0.72978   0.21186   0.40468   1.000
    O477    O    0.22976   0.71188   0.40470   1.000
    O478    O    0.72977   0.71187   0.40470   1.000
    O479    O    0.22977   0.21186   0.40471   1.000
    O480    O    0.77347   0.23342   0.42315   1.000
    O481    O    0.81873   0.25794   0.44959   1.000
    O482    O    0.27347   0.23342   0.42316   1.000
    O483    O    0.31872   0.25794   0.44960   1.000
    O484    O    0.77346   0.73341   0.42316   1.000
    O485    O    0.81873   0.75792   0.44961   1.000
    O486    O    0.27346   0.73341   0.42316   1.000
    O487    O    0.31873   0.75791   0.44963   1.000
    O488    O    0.20473   0.22549   0.47376   1.000
    O489    O    0.70472   0.72549   0.47377   1.000
    O490    O    0.70473   0.22549   0.47376   1.000
    O491    O    0.20472   0.72550   0.47376   1.000
    O492    O    0.85558   0.27991   0.47760   1.000
    O493    O    0.35558   0.27990   0.47761   1.000
    O494    O    0.85559   0.77986   0.47763   1.000
    O495    O    0.35559   0.77985   0.47767   1.000
    O496    O    0.79525   0.27454   0.52663   1.000
    O497    O    0.29525   0.27454   0.52665   1.000
    O498    O    0.79526   0.77450   0.52668   1.000
    O499    O    0.29526   0.77450   0.52669   1.000
    O500    O    0.14440   0.22012   0.52281   1.000
    O501    O    0.18125   0.24208   0.55082   1.000
    O502    O    0.64440   0.22013   0.52280   1.000
    O503    O    0.68125   0.24209   0.55081   1.000
    O504    O    0.14438   0.72015   0.52280   1.000
    O505    O    0.18124   0.74208   0.55083   1.000
    O506    O    0.64439   0.72013   0.52280   1.000
    O507    O    0.68125   0.74208   0.55083   1.000
    O508    O    0.72651   0.26661   0.57725   1.000
    O509    O    0.77020   0.28818   0.59569   1.000
    O510    O    0.22651   0.26661   0.57726   1.000
    O511    O    0.27020   0.28817   0.59571   1.000
    O512    O    0.72652   0.76658   0.57728   1.000
    O513    O    0.77022   0.78813   0.59574   1.000
    O514    O    0.22651   0.76658   0.57729   1.000
    O515    O    0.27021   0.78812   0.59576   1.000
    O516    O    0.65498   0.25811   0.63120   1.000
    O517    O    0.15498   0.25810   0.63118   1.000
    O518    O    0.65498   0.75809   0.63122   1.000
    O519    O    0.15497   0.75809   0.63122   1.000
    O520    O    0.08867   0.24886   0.68488   1.000
    O521    O    0.12912   0.27462   0.70698   1.000
    O522    O    0.58867   0.24887   0.68489   1.000
    O523    O    0.62912   0.27462   0.70700   1.000
    O524    O    0.58867   0.74885   0.68492   1.000
    O525    O    0.62912   0.77461   0.70703   1.000
    O526    O    0.08866   0.74886   0.68492   1.000
    O527    O    0.12911   0.77461   0.70703   1.000
    O528    O    0.77375   0.55860   0.75297   1.000
    O529    O    0.27374   0.55859   0.75326   1.000
    O530    O    0.77372   0.05861   0.75325   1.000
    O531    O    0.27372   0.05858   0.75329   1.000
    O532    O    0.58623   0.28583   0.79208   1.000
    O533    O    0.08622   0.28583   0.79209   1.000
    O534    O    0.08622   0.78582   0.79209   1.000
    O535    O    0.58623   0.78582   0.79210   1.000
    O536    O    0.88844   0.28361   0.75816   1.000
    O537    O    0.38843   0.28361   0.75816   1.000
    O538    O    0.38843   0.78360   0.75818   1.000
    O539    O    0.88843   0.78360   0.75819   1.000
    O540    O    0.28561   0.59510   0.76159   1.000
    O541    O    0.28562   0.09508   0.76161   1.000
    O542    O    0.78561   0.09510   0.76158   1.000
    O543    O    0.78562   0.59510   0.76160   1.000
    O544    O    0.73385   0.59216   0.76597   1.000
    O545    O    0.23383   0.59215   0.76600   1.000
    O546    O    0.73383   0.09217   0.76599   1.000
    O547    O    0.23384   0.09215   0.76603   1.000
    O548    O    0.76772   0.33611   0.77660   1.000
    O549    O    0.26771   0.33611   0.77661   1.000
    O550    O    0.76771   0.83610   0.77662   1.000
    O551    O    0.26771   0.83610   0.77663   1.000
    O552    O    0.75979   0.05650   0.83378   1.000
    O553    O    0.25979   0.55649   0.83379   1.000
    O554    O    0.75980   0.55649   0.83381   1.000
    O555    O    0.25979   0.05648   0.83382   1.000
    O556    O    0.33477   0.32056   0.78224   1.000
    O557    O    0.39751   0.31435   0.79970   1.000
    O558    O    0.83478   0.32056   0.78224   1.000
    O559    O    0.89752   0.31435   0.79968   1.000
    O560    O    0.83477   0.82056   0.78226   1.000
    O561    O    0.89751   0.81434   0.79971   1.000
    O562    O    0.33477   0.82056   0.78226   1.000
    O563    O    0.39751   0.81434   0.79972   1.000
    O564    O    0.79455   0.36059   0.81371   1.000
    O565    O    0.29454   0.36059   0.81372   1.000
    O566    O    0.79454   0.86059   0.81374   1.000
    O567    O    0.29454   0.86058   0.81375   1.000
    O568    O    0.71197   0.45117   0.83418   1.000
    O569    O    0.21196   0.45117   0.83420   1.000
    O570    O    0.71196   0.95117   0.83420   1.000
    O571    O    0.21195   0.95115   0.83425   1.000
    O572    O    0.97827   0.30425   0.83471   1.000
    O573    O    0.89544   0.34990   0.84108   1.000
    O574    O    0.97826   0.80425   0.83472   1.000
    O575    O    0.89544   0.84990   0.84111   1.000
    O576    O    0.47827   0.30425   0.83472   1.000
    O577    O    0.39543   0.34990   0.84111   1.000
    O578    O    0.47827   0.80424   0.83474   1.000
    O579    O    0.39544   0.84989   0.84113   1.000
    O580    O    0.53000   0.98500   0.86780   1.000
    O581    O    0.53001   0.48501   0.86780   1.000
    O582    O    0.03000   0.48500   0.86780   1.000
    O583    O    0.03000   0.98500   0.86780   1.000
    O584    O    0.52640   0.07918   0.87184   1.000
    O585    O    0.52639   0.57918   0.87187   1.000
    O586    O    0.02640   0.07917   0.87187   1.000
    O587    O    0.02638   0.57918   0.87188   1.000
    O588    O    0.83206   0.37862   0.84974   1.000
    O589    O    0.75758   0.40722   0.85491   1.000
    O590    O    0.33205   0.37862   0.84974   1.000
    O591    O    0.25757   0.40721   0.85492   1.000
    O592    O    0.83206   0.87862   0.84975   1.000
    O593    O    0.75757   0.90721   0.85493   1.000
    O594    O    0.33206   0.87860   0.84977   1.000
    O595    O    0.25757   0.90720   0.85496   1.000
    O596    O    0.54561   0.31379   0.88261   1.000
    O597    O    0.53892   0.23119   0.89045   1.000
    O598    O    0.04559   0.81379   0.88262   1.000
    O599    O    0.03889   0.73119   0.89048   1.000
    O600    O    0.04560   0.31379   0.88262   1.000
    O601    O    0.03890   0.23119   0.89047   1.000
    O602    O    0.54561   0.81379   0.88264   1.000
    O603    O    0.53891   0.73118   0.89049   1.000
    O604    O    0.31434   0.64849   0.88089   1.000
    O605    O    0.31434   0.14849   0.88090   1.000
    O606    O    0.81434   0.14849   0.88090   1.000
    O607    O    0.81435   0.64848   0.88093   1.000
    O608    O    0.26096   0.66340   0.88249   1.000
    O609    O    0.26096   0.16339   0.88250   1.000
    O610    O    0.76095   0.16340   0.88251   1.000
    O611    O    0.76097   0.66339   0.88252   1.000
    O612    O    0.87779   0.38831   0.88039   1.000
    O613    O    0.87778   0.88831   0.88039   1.000
    O614    O    0.37778   0.38831   0.88040   1.000
    O615    O    0.37778   0.88829   0.88043   1.000
    O616    O    0.69612   0.41550   0.88986   1.000
    O617    O    0.72927   0.44902   0.90368   1.000
    O618    O    0.19611   0.41549   0.88988   1.000
    O619    O    0.22926   0.44901   0.90369   1.000
    O620    O    0.69612   0.91549   0.88987   1.000
    O621    O    0.72927   0.94901   0.90370   1.000
    O622    O    0.19612   0.91547   0.88994   1.000
    O623    O    0.22927   0.94900   0.90374   1.000
    O624    O    0.24671   0.50167   0.91451   1.000
    O625    O    0.26184   0.55364   0.92353   1.000
    O626    O    0.74672   0.50167   0.91452   1.000
    O627    O    0.76185   0.55363   0.92354   1.000
    O628    O    0.74672   0.00167   0.91452   1.000
    O629    O    0.76185   0.05364   0.92353   1.000
    O630    O    0.24672   0.00166   0.91454   1.000
    O631    O    0.26185   0.05363   0.92355   1.000
    O632    O    0.02040   0.02316   0.90607   1.000
    O633    O    0.01237   0.96103   0.95096   1.000
    O634    O    0.02039   0.52317   0.90608   1.000
    O635    O    0.01237   0.46104   0.95097   1.000
    O636    O    0.52040   0.52317   0.90608   1.000
    O637    O    0.51238   0.46104   0.95097   1.000
    O638    O    0.52040   0.02317   0.90605   1.000
    O639    O    0.51238   0.96103   0.95097   1.000
    O640    O    0.27573   0.60859   0.93096   1.000
    O641    O    0.28310   0.65861   0.93507   1.000
    O642    O    0.77573   0.10860   0.93097   1.000
    O643    O    0.78309   0.15861   0.93509   1.000
    O644    O    0.27573   0.10859   0.93097   1.000
    O645    O    0.28310   0.15861   0.93507   1.000
    O646    O    0.77574   0.60858   0.93098   1.000
    O647    O    0.78310   0.65859   0.93510   1.000
    O648    O    0.53079   0.35242   0.95630   1.000
    O649    O    0.03078   0.35242   0.95630   1.000
    O650    O    0.53079   0.85241   0.95632   1.000
    O651    O    0.03077   0.85241   0.95627   1.000
    O652    O    0.00463   0.89629   0.99572   1.000
    O653    O    0.50465   0.39630   0.99574   1.000
    O654    O    0.00463   0.39629   0.99574   1.000
    O655    O    0.50465   0.89629   0.99576   1.000
loop_
    _geom_bond_atom_site_label_1
    _geom_bond_atom_site_label_2
    _geom_bond_distance
    _geom_bond_site_symmetry_2
    _ccdc_geom_bond_type
    C168   O312      0.74918      .   S
    C164   O312      0.74918      .   S
    C168   O313      0.70189      .   S
    C172   O313      0.70189      .   S
    C168   O314      0.70168  1_554   S
    C178   O314      0.70168      .   S
    C169   O315      0.74894      .   S
    C165   O315      0.74894      .   S
    C169   O316      0.70191      .   S
    C173   O316      0.70191      .   S
    C169   O317      0.70146  1_554   S
    C179   O317      0.70146      .   S
    C170   O318      0.74915      .   S
    C166   O318      0.74915      .   S
    C170   O319      0.70189      .   S
    C174   O319      0.70189      .   S
    C170   O320      0.70148  1_654   S
    C176   O320      0.70148      .   S
    C171   O321      0.74894      .   S
    C167   O321      0.74894      .   S
    C171   O322      0.70191      .   S
    C175   O322      0.70191      .   S
    C171   O323      0.70146  1_654   S
    C177   O323      0.70146      .   S
    C165   O324      0.63988      .   S
    C281   O324      0.63988      .   S
    C165   O325      0.63539  1_554   S
    C287   O325      0.63539      .   S
    C167   O326      0.63987      .   S
    C283   O326      0.63987      .   S
    C167   O327      0.63532  1_654   S
    C285   O327      0.63532      .   S
    C164   O328      0.63937      .   S
    C280   O328      0.63937      .   S
    C164   O329      0.63571  1_554   S
    C286   O329      0.63571      .   S
    C166   O330      0.63942      .   S
    C282   O330      0.63942      .   S
    C166   O331      0.63555  1_654   S
    C284   O331      0.63555      .   S
    C102   O332      0.54705      .   S
    C230   O332      0.54705      .   S
    C100   O333      0.54703      .   S
    C228   O333      0.54703      .   S
    C103   O334      0.54703      .   S
    C231   O334      0.54703      .   S
    C101   O335      0.54701      .   S
    C229   O335      0.54701      .   S
    C220   O336      0.75385      .   S
    C228   O336      0.75385      .   S
    C220   O337      0.70576      .   S
    C148   O337      0.70576      .   S
    C220   O338      0.70457  1_554   S
    C212   O338      0.70457      .   S
    C222   O339      0.75384      .   S
    C230   O339      0.75384      .   S
    C222   O340      0.70533      .   S
    C150   O340      0.70533      .   S
    C222   O341      0.70500  1_554   S
    C214   O341      0.70500      .   S
    C223   O342      0.75384      .   S
    C231   O342      0.75384      .   S
    C223   O343      0.70533      .   S
    C151   O343      0.70533      .   S
    C223   O344      0.70501  1_554   S
    C215   O344      0.70501      .   S
    C221   O345      0.75384      .   S
    C229   O345      0.75384      .   S
    C221   O346      0.70533      .   S
    C149   O346      0.70533      .   S
    C221   O347      0.70500  1_554   S
    C213   O347      0.70500      .   S
    C144   O348      0.70508  1_545   S
    C149   O348      0.70508      .   S
    C144   O349      0.75577      .   S
    C140   O349      0.75577      .   S
    C144   O350      0.70488      .   S
    C152   O350      0.70488  1_556   S
    C145   O351      0.70504      .   S
    C148   O351      0.70504      .   S
    C145   O352      0.75560      .   S
    C141   O352      0.75560      .   S
    C145   O353      0.70506      .   S
    C153   O353      0.70506  1_556   S
    C146   O354      0.70507  1_545   S
    C151   O354      0.70507      .   S
    C146   O355      0.75559      .   S
    C142   O355      0.75559      .   S
    C146   O356      0.70507      .   S
    C154   O356      0.70507  1_556   S
    C147   O357      0.70504      .   S
    C150   O357      0.70504      .   S
    C147   O358      0.75560      .   S
    C143   O358      0.75560      .   S
    C147   O359      0.70507      .   S
    C155   O359      0.70507  1_556   S
    C302   O360      1.00014      .   S
    C2     O360      1.00014      .   S
    C302   O361      0.63554      .   S
    C232   O361      0.63554  1_456   S
    C300   O362      1.00015      .   S
    C0     O362      1.00015      .   S
    C300   O363      0.63561      .   S
    C234   O363      0.63561  1_556   S
    C303   O364      1.00015      .   S
    C3     O364      1.00015      .   S
    C303   O365      0.63576      .   S
    C233   O365      0.63576  1_456   S
    C301   O366      1.00015      .   S
    C1     O366      1.00015      .   S
    C301   O367      0.63560      .   S
    C235   O367      0.63560  1_556   S
    C280   O368      1.01666      .   S
    C0     O368      1.01666      .   S
    C282   O369      1.01666      .   S
    C2     O369      1.01666      .   S
    C283   O370      1.01669      .   S
    C3     O370      1.01669      .   S
    C281   O371      1.01667      .   S
    C1     O371      1.01667      .   S
    C21    O372      0.54776      .   S
    C141   O372      0.54776      .   S
    C20    O373      0.54776      .   S
    C140   O373      0.54776      .   S
    C22    O374      0.54775      .   S
    C142   O374      0.54775      .   S
    C23    O375      0.54776      .   S
    C143   O375      0.54776      .   S
    C247   O376      0.69571      .   S
    C174   O376      0.69571  1_545   S
    C247   O377      0.54539      .   S
    C119   O377      0.54539      .   S
    C247   O378      0.70149      .   S
    C237   O378      0.70149  1_456   S
    C246   O379      0.69567      .   S
    C175   O379      0.69567      .   S
    C246   O380      0.54537      .   S
    C118   O380      0.54537      .   S
    C246   O381      0.70147      .   S
    C236   O381      0.70147  1_456   S
    C245   O382      0.69569      .   S
    C172   O382      0.69569  1_545   S
    C245   O383      0.54539      .   S
    C117   O383      0.54539      .   S
    C245   O384      0.70149      .   S
    C239   O384      0.70149  1_556   S
    C244   O385      0.69567      .   S
    C173   O385      0.69567      .   S
    C244   O386      0.54537      .   S
    C116   O386      0.54537      .   S
    C244   O387      0.70147      .   S
    C238   O387      0.70147  1_556   S
    C230   O388      0.54954      .   S
    C110   O388      0.54954      .   S
    C230   O389      0.55039      .   S
    C106   O389      0.55039      .   S
    C231   O390      0.54953      .   S
    C111   O390      0.54953      .   S
    C231   O391      0.55039      .   S
    C107   O391      0.55039      .   S
    C228   O392      0.54954      .   S
    C108   O392      0.54954      .   S
    C228   O393      0.55038      .   S
    C104   O393      0.55038      .   S
    C229   O394      0.54955      .   S
    C109   O394      0.54955      .   S
    C229   O395      0.55040      .   S
    C105   O395      0.55040      .   S
    C172   O396      0.54490      .   S
    C52    O396      0.54490      .   S
    C173   O397      0.54488      .   S
    C53    O397      0.54488      .   S
    C175   O398      0.54488      .   S
    C55    O398      0.54488      .   S
    C174   O399      0.54490      .   S
    C54    O399      0.54490      .   S
    C9     O400      0.54023      .   S
    C129   O400      0.54023      .   S
    C10    O401      0.54021      .   S
    C130   O401      0.54021      .   S
    C8     O402      0.54016      .   S
    C128   O402      0.54016      .   S
    C11    O403      0.54020      .   S
    C131   O403      0.54020      .   S
    C148   O404      0.75475      .   S
    C156   O404      0.75475      .   S
    C150   O405      0.75475      .   S
    C158   O405      0.75475      .   S
    C151   O406      0.75446      .   S
    C159   O406      0.75446      .   S
    C149   O407      0.75475      .   S
    C157   O407      0.75475      .   S
    C141   O408      0.73913      .   S
    C269   O408      0.73913      .   S
    C141   O409      0.54781      .   S
    C25    O409      0.54781      .   S
    C142   O410      0.73913      .   S
    C270   O410      0.73913      .   S
    C142   O411      0.54781      .   S
    C26    O411      0.54781      .   S
    C140   O412      0.73912      .   S
    C268   O412      0.73912      .   S
    C140   O413      0.54780      .   S
    C24    O413      0.54780      .   S
    C143   O414      0.73912      .   S
    C271   O414      0.73912      .   S
    C143   O415      0.54780      .   S
    C27    O415      0.54780      .   S
    C128   O416      0.67610      .   S
    C268   O416      0.67610      .   S
    C128   O417      0.66894      .   S
    C264   O417      0.66894      .   S
    C129   O418      0.67610      .   S
    C269   O418      0.67610      .   S
    C129   O419      0.66889      .   S
    C265   O419      0.66889      .   S
    C130   O420      0.67610      .   S
    C270   O420      0.67610      .   S
    C130   O421      0.66890      .   S
    C266   O421      0.66890      .   S
    C131   O422      0.67610      .   S
    C271   O422      0.67610      .   S
    C131   O423      0.66891      .   S
    C267   O423      0.66891      .   S
    C0     O424      1.00440      .   S
    C266   O424      1.00440      .   S
    C0     O425      0.99276      .   S
    C288   O425      0.99276      .   S
    C2     O426      1.00430  1_655   S
    C264   O426      1.00430      .   S
    C2     O427      0.99276      .   S
    C290   O427      0.99276      .   S
    C3     O428      1.00428  1_655   S
    C265   O428      1.00428      .   S
    C3     O429      0.99272      .   S
    C291   O429      0.99272      .   S
    C1     O430      1.00440      .   S
    C267   O430      1.00440      .   S
    C1     O431      0.99274      .   S
    C289   O431      0.99274      .   S
    C269   O432      0.69373      .   S
    C133   O432      0.69373      .   S
    C268   O433      0.69372      .   S
    C132   O433      0.69372      .   S
    C270   O434      0.69371      .   S
    C134   O434      0.69371      .   S
    C271   O435      0.69370      .   S
    C135   O435      0.69370      .   S
    C265   O436      0.69325      .   S
    C137   O436      0.69325      .   S
    C264   O437      0.69325      .   S
    C136   O437      0.69325      .   S
    C266   O438      0.69328      .   S
    C138   O438      0.69328      .   S
    C267   O439      0.69323      .   S
    C139   O439      0.69323      .   S
    C132   O440      0.68610      .   S
    C136   O440      0.68610      .   S
    C132   O441      0.54314      .   S
    C12    O441      0.54314      .   S
    C133   O442      0.68609      .   S
    C137   O442      0.68609      .   S
    C133   O443      0.54319      .   S
    C13    O443      0.54319      .   S
    C134   O444      0.68608      .   S
    C138   O444      0.68608      .   S
    C134   O445      0.54317      .   S
    C14    O445      0.54317      .   S
    C135   O446      0.68609      .   S
    C139   O446      0.68609      .   S
    C135   O447      0.54319      .   S
    C15    O447      0.54319      .   S
    C136   O448      0.54155      .   S
    C16    O448      0.54155      .   S
    C137   O449      0.54157      .   S
    C17    O449      0.54157      .   S
    C138   O450      0.54153      .   S
    C18    O450      0.54153      .   S
    C139   O451      0.54156      .   S
    C19    O451      0.54156      .   S
    C159   O452      0.55109      .   S
    C39    O452      0.55109      .   S
    C159   O453      0.54797      .   S
    C35    O453      0.54797      .   S
    C159   O454      0.54841      .   S
    C31    O454      0.54841      .   S
    C156   O455      0.55101      .   S
    C36    O455      0.55101      .   S
    C156   O456      0.54798      .   S
    C32    O456      0.54798      .   S
    C156   O457      0.54818      .   S
    C28    O457      0.54818      .   S
    C158   O458      0.55100      .   S
    C38    O458      0.55100      .   S
    C158   O459      0.54800      .   S
    C34    O459      0.54800      .   S
    C158   O460      0.54814      .   S
    C30    O460      0.54814      .   S
    C157   O461      0.55099      .   S
    C37    O461      0.55099      .   S
    C157   O462      0.54803      .   S
    C33    O462      0.54803      .   S
    C157   O463      0.54813      .   S
    C29    O463      0.54813      .   S
    C288   O464      0.65457      .   S
    C180   O464      0.65457      .   S
    C290   O465      0.65457      .   S
    C182   O465      0.65457      .   S
    C289   O466      0.65454      .   S
    C181   O466      0.65454      .   S
    C291   O467      0.65410      .   S
    C183   O467      0.65410      .   S
    C294   O468      0.62590      .   S
    C182   O468      0.62590      .   S
    C292   O469      0.62589      .   S
    C180   O469      0.62589      .   S
    C295   O470      0.62599      .   S
    C183   O470      0.62599      .   S
    C293   O471      0.62590      .   S
    C181   O471      0.62590      .   S
    C183   O472      0.75084      .   S
    C187   O472      0.75084      .   S
    C180   O473      0.75051      .   S
    C184   O473      0.75051      .   S
    C182   O474      0.75047      .   S
    C186   O474      0.75047      .   S
    C181   O475      0.75052      .   S
    C185   O475      0.75052      .   S
    C66    O476      0.54426      .   S
    C194   O476      0.54426      .   S
    C65    O477      0.54380      .   S
    C193   O477      0.54380      .   S
    C67    O478      0.54381      .   S
    C195   O478      0.54381      .   S
    C64    O479      0.54381      .   S
    C192   O479      0.54381      .   S
    C186   O480      0.70168      .   S
    C194   O480      0.70168      .   S
    C186   O481      0.70184      .   S
    C190   O481      0.70184      .   S
    C184   O482      0.70169      .   S
    C192   O482      0.70169      .   S
    C184   O483      0.70182      .   S
    C188   O483      0.70182      .   S
    C187   O484      0.70168      .   S
    C195   O484      0.70168      .   S
    C187   O485      0.70186      .   S
    C191   O485      0.70186      .   S
    C185   O486      0.70168      .   S
    C193   O486      0.70168      .   S
    C185   O487      0.70185      .   S
    C189   O487      0.70185      .   S
    C192   O488      0.69603      .   S
    C256   O488      0.69603      .   S
    C195   O489      0.69605      .   S
    C259   O489      0.69605      .   S
    C194   O490      0.69605      .   S
    C258   O490      0.69605      .   S
    C193   O491      0.69605      .   S
    C257   O491      0.69605      .   S
    C62    O492      0.54483      .   S
    C190   O492      0.54483      .   S
    C60    O493      0.54482      .   S
    C188   O493      0.54482      .   S
    C63    O494      0.54478      .   S
    C191   O494      0.54478      .   S
    C61    O495      0.54482      .   S
    C189   O495      0.54482      .   S
    C190   O496      0.69605      .   S
    C262   O496      0.69605      .   S
    C188   O497      0.69604      .   S
    C260   O497      0.69604      .   S
    C191   O498      0.69607      .   S
    C263   O498      0.69607      .   S
    C189   O499      0.69602      .   S
    C261   O499      0.69602      .   S
    C256   O500      0.54482      .   S
    C120   O500      0.54482      .   S
    C256   O501      0.70186      .   S
    C252   O501      0.70186      .   S
    C258   O502      0.54483      .   S
    C122   O502      0.54483      .   S
    C258   O503      0.70182      .   S
    C254   O503      0.70182      .   S
    C257   O504      0.54482      .   S
    C121   O504      0.54482      .   S
    C257   O505      0.70185      .   S
    C253   O505      0.70185      .   S
    C259   O506      0.54482      .   S
    C123   O506      0.54482      .   S
    C259   O507      0.70182      .   S
    C255   O507      0.70182      .   S
    C262   O508      0.70169      .   S
    C254   O508      0.70169      .   S
    C262   O509      0.54389      .   S
    C126   O509      0.54389      .   S
    C260   O510      0.70169      .   S
    C252   O510      0.70169      .   S
    C260   O511      0.54387      .   S
    C124   O511      0.54387      .   S
    C263   O512      0.70170      .   S
    C255   O512      0.70170      .   S
    C263   O513      0.54383      .   S
    C127   O513      0.54383      .   S
    C261   O514      0.70168      .   S
    C253   O514      0.70168      .   S
    C261   O515      0.54387      .   S
    C125   O515      0.54387      .   S
    C254   O516      0.75050      .   S
    C250   O516      0.75050      .   S
    C252   O517      0.75021      .   S
    C248   O517      0.75021      .   S
    C255   O518      0.75048      .   S
    C251   O518      0.75048      .   S
    C253   O519      0.75048      .   S
    C249   O519      0.75048      .   S
    C248   O520      0.62581      .   S
    C308   O520      0.62581      .   S
    C248   O521      0.65490      .   S
    C304   O521      0.65490      .   S
    C250   O522      0.62590      .   S
    C310   O522      0.62590      .   S
    C250   O523      0.65451      .   S
    C306   O523      0.65451      .   S
    C251   O524      0.62588      .   S
    C311   O524      0.62588      .   S
    C251   O525      0.65458      .   S
    C307   O525      0.65458      .   S
    C249   O526      0.62590      .   S
    C309   O526      0.62590      .   S
    C249   O527      0.65452      .   S
    C305   O527      0.65452      .   S
    C91    O528      0.55136      .   S
    C227   O528      0.55136      .   S
    C89    O529      0.54815      .   S
    C225   O529      0.54815      .   S
    C90    O530      0.54788      .   S
    C226   O530      0.54788      .   S
    C88    O531      0.54817      .   S
    C224   O531      0.54817      .   S
    C306   O532      0.99272      .   S
    C6     O532      0.99272      .   S
    C304   O533      0.99274      .   S
    C4     O533      0.99274      .   S
    C305   O534      0.99269      .   S
    C5     O534      0.99269      .   S
    C307   O535      0.99270      .   S
    C7     O535      0.99270      .   S
    C78    O536      0.54155      .   S
    C206   O536      0.54155      .   S
    C76    O537      0.54155      .   S
    C204   O537      0.54155      .   S
    C77    O538      0.54153      .   S
    C205   O538      0.54153      .   S
    C79    O539      0.54154      .   S
    C207   O539      0.54154      .   S
    C93    O540      0.54799      .   S
    C225   O540      0.54799      .   S
    C92    O541      0.54799      .   S
    C224   O541      0.54799      .   S
    C94    O542      0.54802      .   S
    C226   O542      0.54802      .   S
    C95    O543      0.54799      .   S
    C227   O543      0.54799      .   S
    C99    O544      0.55114      .   S
    C227   O544      0.55114      .   S
    C97    O545      0.55101      .   S
    C225   O545      0.55101      .   S
    C98    O546      0.55094      .   S
    C226   O546      0.55094      .   S
    C96    O547      0.55102      .   S
    C224   O547      0.55102      .   S
    C74    O548      0.54318      .   S
    C202   O548      0.54318      .   S
    C72    O549      0.54318      .   S
    C200   O549      0.54318      .   S
    C75    O550      0.54320      .   S
    C203   O550      0.54320      .   S
    C73    O551      0.54319      .   S
    C201   O551      0.54319      .   S
    C226   O552      0.75502      .   S
    C218   O552      0.75502      .   S
    C225   O553      0.75476      .   S
    C217   O553      0.75476      .   S
    C227   O554      0.75477      .   S
    C219   O554      0.75477      .   S
    C224   O555      0.75477      .   S
    C216   O555      0.75477      .   S
    C204   O556      0.68609      .   S
    C200   O556      0.68609      .   S
    C204   O557      0.69326      .   S
    C272   O557      0.69326      .   S
    C206   O558      0.68609      .   S
    C202   O558      0.68609      .   S
    C206   O559      0.69299      .   S
    C274   O559      0.69299      .   S
    C207   O560      0.68609      .   S
    C203   O560      0.68609      .   S
    C207   O561      0.69322      .   S
    C275   O561      0.69322      .   S
    C205   O562      0.68609      .   S
    C201   O562      0.68609      .   S
    C205   O563      0.69326      .   S
    C273   O563      0.69326      .   S
    C202   O564      0.69371      .   S
    C278   O564      0.69371      .   S
    C200   O565      0.69371      .   S
    C276   O565      0.69371      .   S
    C203   O566      0.69372      .   S
    C279   O566      0.69372      .   S
    C201   O567      0.69368      .   S
    C277   O567      0.69368      .   S
    C86    O568      0.54785      .   S
    C210   O568      0.54785      .   S
    C84    O569      0.54781      .   S
    C208   O569      0.54781      .   S
    C87    O570      0.54781      .   S
    C211   O570      0.54781      .   S
    C85    O571      0.54784      .   S
    C209   O571      0.54784      .   S
    C274   O572      1.00436      .   S
    C4     O572      1.00436  1_455   S
    C274   O573      0.66907      .   S
    C198   O573      0.66907      .   S
    C275   O574      1.00425      .   S
    C5     O574      1.00425  1_455   S
    C275   O575      0.66894      .   S
    C199   O575      0.66894      .   S
    C272   O576      1.00438      .   S
    C6     O576      1.00438      .   S
    C272   O577      0.66892      .   S
    C196   O577      0.66892      .   S
    C273   O578      1.00438      .   S
    C7     O578      1.00438      .   S
    C273   O579      0.66892      .   S
    C197   O579      0.66892      .   S
    C115   O580      0.54489      .   S
    C243   O580      0.54489      .   S
    C114   O581      0.54487      .   S
    C242   O581      0.54487      .   S
    C112   O582      0.54487      .   S
    C240   O582      0.54487      .   S
    C113   O583      0.54475      .   S
    C241   O583      0.54475      .   S
    C58    O584      0.54524      .   S
    C178   O584      0.54524      .   S
    C59    O585      0.54538      .   S
    C179   O585      0.54538      .   S
    C56    O586      0.54537      .   S
    C176   O586      0.54537      .   S
    C57    O587      0.54534      .   S
    C177   O587      0.54534      .   S
    C278   O588      0.67610      .   S
    C198   O588      0.67610      .   S
    C278   O589      0.73916      .   S
    C210   O589      0.73916      .   S
    C276   O590      0.67611      .   S
    C196   O590      0.67611      .   S
    C276   O591      0.73914      .   S
    C208   O591      0.73914      .   S
    C279   O592      0.67610      .   S
    C199   O592      0.67610      .   S
    C279   O593      0.73915      .   S
    C211   O593      0.73915      .   S
    C277   O594      0.67613      .   S
    C197   O594      0.67613      .   S
    C277   O595      0.73915      .   S
    C209   O595      0.73915      .   S
    C6     O596      1.01683      .   S
    C298   O596      1.01683      .   S
    C6     O597      1.00012      .   S
    C286   O597      1.00012      .   S
    C5     O598      1.01690      .   S
    C297   O598      1.01690      .   S
    C5     O599      1.00017      .   S
    C285   O599      1.00017      .   S
    C4     O600      1.01678      .   S
    C296   O600      1.01678      .   S
    C4     O601      1.00014      .   S
    C284   O601      1.00014      .   S
    C7     O602      1.01684      .   S
    C299   O602      1.01684      .   S
    C7     O603      1.00014      .   S
    C287   O603      1.00014      .   S
    C45    O604      0.55040      .   S
    C161   O604      0.55040      .   S
    C44    O605      0.55041      .   S
    C160   O605      0.55041      .   S
    C46    O606      0.55039      .   S
    C162   O606      0.55039      .   S
    C47    O607      0.55040      .   S
    C163   O607      0.55040      .   S
    C49    O608      0.54958      .   S
    C161   O608      0.54958      .   S
    C48    O609      0.54959      .   S
    C160   O609      0.54959      .   S
    C50    O610      0.54955      .   S
    C162   O610      0.54955      .   S
    C51    O611      0.54958      .   S
    C163   O611      0.54958      .   S
    C198   O612      0.54023      .   S
    C70    O612      0.54023      .   S
    C199   O613      0.54018      .   S
    C71    O613      0.54018      .   S
    C196   O614      0.54018      .   S
    C68    O614      0.54018      .   S
    C197   O615      0.54016      .   S
    C69    O615      0.54016      .   S
    C210   O616      0.54775      .   S
    C82    O616      0.54775      .   S
    C210   O617      0.75562      .   S
    C214   O617      0.75562      .   S
    C208   O618      0.54776      .   S
    C80    O618      0.54776      .   S
    C208   O619      0.75562      .   S
    C212   O619      0.75562      .   S
    C211   O620      0.54772      .   S
    C83    O620      0.54772      .   S
    C211   O621      0.75562      .   S
    C215   O621      0.75562      .   S
    C209   O622      0.54775      .   S
    C81    O622      0.54775      .   S
    C209   O623      0.75562      .   S
    C213   O623      0.75562      .   S
    C217   O624      0.70505      .   S
    C212   O624      0.70505      .   S
    C217   O625      0.70528      .   S
    C153   O625      0.70528      .   S
    C219   O626      0.70505      .   S
    C214   O626      0.70505      .   S
    C219   O627      0.70528      .   S
    C155   O627      0.70528      .   S
    C218   O628      0.70508      .   S
    C215   O628      0.70508  1_565   S
    C218   O629      0.70527      .   S
    C154   O629      0.70527      .   S
    C216   O630      0.70508      .   S
    C213   O630      0.70508  1_565   S
    C216   O631      0.70528      .   S
    C152   O631      0.70528      .   S
    C241   O632      0.69573  1_565   S
    C176   O632      0.69573      .   S
    C241   O633      0.70193      .   S
    C237   O633      0.70193      .   S
    C240   O634      0.69566      .   S
    C177   O634      0.69566      .   S
    C240   O635      0.70191      .   S
    C236   O635      0.70191      .   S
    C242   O636      0.69565      .   S
    C179   O636      0.69565      .   S
    C242   O637      0.70191      .   S
    C238   O637      0.70191      .   S
    C243   O638      0.69560  1_565   S
    C178   O638      0.69560      .   S
    C243   O639      0.70189      .   S
    C239   O639      0.70189      .   S
    C161   O640      0.75385      .   S
    C153   O640      0.75385      .   S
    C161   O641      0.54701      .   S
    C41    O641      0.54701      .   S
    C162   O642      0.75384      .   S
    C154   O642      0.75384      .   S
    C162   O643      0.54707      .   S
    C42    O643      0.54707      .   S
    C160   O644      0.75385      .   S
    C152   O644      0.75385      .   S
    C160   O645      0.54699      .   S
    C40    O645      0.54699      .   S
    C163   O646      0.75384      .   S
    C155   O646      0.75384      .   S
    C163   O647      0.54703      .   S
    C43    O647      0.54703      .   S
    C298   O648      0.63940      .   S
    C234   O648      0.63940      .   S
    C296   O649      0.63940      .   S
    C232   O649      0.63940      .   S
    C299   O650      0.63939      .   S
    C235   O650      0.63939      .   S
    C297   O651      0.63898      .   S
    C233   O651      0.63898      .   S
    C233   O652      0.74940      .   S
    C237   O652      0.74940      .   S
    C234   O653      0.74922      .   S
    C238   O653      0.74922      .   S
    C232   O654      0.74922      .   S
    C236   O654      0.74922      .   S
    C235   O655      0.74919      .   S
    C239   O655      0.74919      .   S
