# CIF file generated by openbabel 2.4.90, see http://openbabel.sf.net
data_I
_chemical_name_common ''
_cell_length_a 8.578
_cell_length_b 13.866
_cell_length_c 21.033
_cell_angle_alpha 109.128
_cell_angle_beta 92.71
_cell_angle_gamma 89.975
_space_group_name_H-M_alt 'P 1'
_space_group_name_Hall 'P 1'
loop_
    _symmetry_equiv_pos_as_xyz
    x,y,z
loop_
    _atom_site_label
    _atom_site_type_symbol
    _atom_site_fract_x
    _atom_site_fract_y
    _atom_site_fract_z
    _atom_site_occupancy
    Cu0     Cu   0.25007   0.00132   0.75011   1.000
    Cu1     Cu   0.25038   0.50032   0.25005   1.000
    Cu2     Cu   0.24999   0.50135   0.75009   1.000
    Cu3     Cu   0.75027   0.00030   0.25004   1.000
    Cu4     Cu   0.75006   0.00133   0.75011   1.000
    Cu5     Cu   0.75035   0.50033   0.25005   1.000
    Cu6     Cu   0.74999   0.50135   0.75009   1.000
    Cu7     Cu   0.25047   0.25029   0.25004   1.000
    Cu8     Cu   0.25026   0.25121   0.74999   1.000
    Cu9     Cu   0.25037   0.75023   0.25001   1.000
    Cu10    Cu   0.25021   0.75119   0.74997   1.000
    Cu11    Cu   0.75045   0.25029   0.25004   1.000
    Cu12    Cu   0.75024   0.25121   0.74999   1.000
    Cu13    Cu   0.75033   0.75024   0.25001   1.000
    Cu14    Cu   0.75023   0.75119   0.74997   1.000
    Cu15    Cu   0.25032   0.00030   0.25005   1.000
    Ts16    Ts   0.29992   0.00049   0.72789   1.000
    Ts17    Ts   0.20015   0.00217   0.77231   1.000
    Ts18    Ts   0.21195   0.03975   0.74360   1.000
    Ts19    Ts   0.28821   0.96286   0.75657   1.000
    Ts20    Ts   0.30019   0.49947   0.22782   1.000
    Ts21    Ts   0.20046   0.50116   0.27226   1.000
    Ts22    Ts   0.21221   0.53875   0.24354   1.000
    Ts23    Ts   0.28851   0.46185   0.25653   1.000
    Ts24    Ts   0.29985   0.50050   0.72787   1.000
    Ts25    Ts   0.20009   0.50221   0.77230   1.000
    Ts26    Ts   0.21187   0.53977   0.74357   1.000
    Ts27    Ts   0.28815   0.46289   0.75656   1.000
    Ts28    Ts   0.80011   0.99949   0.22782   1.000
    Ts29    Ts   0.70037   0.00111   0.27223   1.000
    Ts30    Ts   0.71214   0.03875   0.24354   1.000
    Ts31    Ts   0.78840   0.96183   0.25652   1.000
    Ts32    Ts   0.79990   0.00050   0.72789   1.000
    Ts33    Ts   0.70014   0.00217   0.77231   1.000
    Ts34    Ts   0.71192   0.03976   0.74360   1.000
    Ts35    Ts   0.78820   0.96286   0.75657   1.000
    Ts36    Ts   0.80017   0.49948   0.22783   1.000
    Ts37    Ts   0.70044   0.50117   0.27226   1.000
    Ts38    Ts   0.71218   0.53876   0.24354   1.000
    Ts39    Ts   0.78849   0.46185   0.25652   1.000
    Ts40    Ts   0.79984   0.50050   0.72787   1.000
    Ts41    Ts   0.70008   0.50221   0.77230   1.000
    Ts42    Ts   0.71187   0.53977   0.74357   1.000
    Ts43    Ts   0.78814   0.46289   0.75657   1.000
    Ts44    Ts   0.20056   0.27152   0.27227   1.000
    Ts45    Ts   0.30028   0.22907   0.22779   1.000
    Ts46    Ts   0.21227   0.20541   0.24354   1.000
    Ts47    Ts   0.28857   0.29516   0.25652   1.000
    Ts48    Ts   0.20039   0.27250   0.77222   1.000
    Ts49    Ts   0.30010   0.22996   0.72775   1.000
    Ts50    Ts   0.21207   0.20634   0.74352   1.000
    Ts51    Ts   0.28832   0.29612   0.75650   1.000
    Ts52    Ts   0.20045   0.77146   0.27224   1.000
    Ts53    Ts   0.30020   0.72900   0.22776   1.000
    Ts54    Ts   0.21220   0.70537   0.24352   1.000
    Ts55    Ts   0.28847   0.79512   0.25650   1.000
    Ts56    Ts   0.20036   0.77247   0.77220   1.000
    Ts57    Ts   0.30005   0.72995   0.72773   1.000
    Ts58    Ts   0.21201   0.70633   0.74349   1.000
    Ts59    Ts   0.28830   0.79611   0.75648   1.000
    Ts60    Ts   0.70055   0.27153   0.27226   1.000
    Ts61    Ts   0.80026   0.22907   0.22779   1.000
    Ts62    Ts   0.71225   0.20542   0.24354   1.000
    Ts63    Ts   0.78855   0.29516   0.25652   1.000
    Ts64    Ts   0.70037   0.27250   0.77222   1.000
    Ts65    Ts   0.80008   0.22997   0.72773   1.000
    Ts66    Ts   0.71204   0.20635   0.74352   1.000
    Ts67    Ts   0.78831   0.29613   0.75650   1.000
    Ts68    Ts   0.70042   0.77147   0.27224   1.000
    Ts69    Ts   0.80018   0.72901   0.22776   1.000
    Ts70    Ts   0.71217   0.70537   0.24351   1.000
    Ts71    Ts   0.78844   0.79512   0.25650   1.000
    Ts72    Ts   0.70037   0.77247   0.77220   1.000
    Ts73    Ts   0.80006   0.72995   0.72772   1.000
    Ts74    Ts   0.71203   0.70633   0.74349   1.000
    Ts75    Ts   0.78831   0.79611   0.75648   1.000
    Ts76    Ts   0.30014   0.99950   0.22783   1.000
    Ts77    Ts   0.20041   0.00110   0.27225   1.000
    Ts78    Ts   0.21217   0.03875   0.24355   1.000
    Ts79    Ts   0.28843   0.96183   0.25652   1.000
loop_
    _geom_bond_atom_site_label_1
    _geom_bond_atom_site_label_2
    _geom_bond_distance
    _geom_bond_site_symmetry_2
    _ccdc_geom_bond_type
    Cu0    Ts16      0.64559      .   S
    Cu0    Ts17      0.64558      .   S
    Cu0    Ts18      0.67311      .   S
    Cu0    Ts19      0.67307  1_545   S
    Cu1    Ts20      0.64542      .   S
    Cu1    Ts21      0.64571      .   S
    Cu1    Ts22      0.67336      .   S
    Cu1    Ts23      0.67328      .   S
    Cu2    Ts24      0.64549      .   S
    Cu2    Ts25      0.64570      .   S
    Cu2    Ts26      0.67307      .   S
    Cu2    Ts27      0.67327      .   S
    Cu3    Ts28      0.64557  1_545   S
    Cu3    Ts29      0.64545      .   S
    Cu3    Ts30      0.67340      .   S
    Cu3    Ts31      0.67328  1_545   S
    Cu4    Ts32      0.64555      .   S
    Cu4    Ts33      0.64558      .   S
    Cu4    Ts34      0.67317      .   S
    Cu4    Ts35      0.67311  1_545   S
    Cu5    Ts36      0.64538      .   S
    Cu5    Ts37      0.64568      .   S
    Cu5    Ts38      0.67337      .   S
    Cu5    Ts39      0.67331      .   S
    Cu6    Ts40      0.64551      .   S
    Cu6    Ts41      0.64572      .   S
    Cu6    Ts42      0.67307      .   S
    Cu6    Ts43      0.67325      .   S
    Cu7    Ts44      0.64588      .   S
    Cu7    Ts45      0.64550      .   S
    Cu7    Ts46      0.67337      .   S
    Cu7    Ts47      0.67303      .   S
    Cu8    Ts48      0.64584      .   S
    Cu8    Ts49      0.64569      .   S
    Cu8    Ts50      0.67330      .   S
    Cu8    Ts51      0.67332      .   S
    Cu9    Ts52      0.64586      .   S
    Cu9    Ts53      0.64570      .   S
    Cu9    Ts54      0.67314      .   S
    Cu9    Ts55      0.67311      .   S
    Cu10   Ts56      0.64574      .   S
    Cu10   Ts57      0.64568      .   S
    Cu10   Ts58      0.67326      .   S
    Cu10   Ts59      0.67342      .   S
    Cu11   Ts60      0.64574      .   S
    Cu11   Ts61      0.64557      .   S
    Cu11   Ts62      0.67333      .   S
    Cu11   Ts63      0.67304      .   S
    Cu12   Ts64      0.64581      .   S
    Cu12   Ts65      0.64596      .   S
    Cu12   Ts66      0.67331      .   S
    Cu12   Ts67      0.67335      .   S
    Cu13   Ts68      0.64585      .   S
    Cu13   Ts69      0.64571      .   S
    Cu13   Ts70      0.67314      .   S
    Cu13   Ts71      0.67312      .   S
    Cu14   Ts72      0.64576      .   S
    Cu14   Ts73      0.64565      .   S
    Cu14   Ts74      0.67329      .   S
    Cu14   Ts75      0.67336      .   S
    Cu15   Ts76      0.64559  1_545   S
    Cu15   Ts77      0.64573      .   S
    Cu15   Ts78      0.67342      .   S
    Cu15   Ts79      0.67323  1_545   S
