# CIF file generated by openbabel 2.4.90, see http://openbabel.sf.net
data_I
_chemical_name_common ''
_cell_length_a 8.578
_cell_length_b 13.866
_cell_length_c 21.033
_cell_angle_alpha 109.128
_cell_angle_beta 92.71
_cell_angle_gamma 89.975
_space_group_name_H-M_alt 'P 1'
_space_group_name_Hall 'P 1'
loop_
    _symmetry_equiv_pos_as_xyz
    x,y,z
loop_
    _atom_site_label
    _atom_site_type_symbol
    _atom_site_fract_x
    _atom_site_fract_y
    _atom_site_fract_z
    _atom_site_occupancy
    C0      C    0.25032   0.00030   0.25005   1.000
    C1      C    0.25007   0.00132   0.75011   1.000
    C2      C    0.25038   0.50032   0.25005   1.000
    C3      C    0.24999   0.50135   0.75009   1.000
    C4      C    0.75027   0.00030   0.25004   1.000
    C5      C    0.75006   0.00133   0.75011   1.000
    C6      C    0.75035   0.50033   0.25005   1.000
    C7      C    0.74999   0.50135   0.75009   1.000
    C8      C    0.25047   0.25029   0.25004   1.000
    C9      C    0.25026   0.25121   0.74999   1.000
    C10     C    0.25037   0.75023   0.25001   1.000
    C11     C    0.25021   0.75119   0.74997   1.000
    C12     C    0.75045   0.25029   0.25004   1.000
    C13     C    0.75024   0.25121   0.74999   1.000
    C14     C    0.75033   0.75024   0.25001   1.000
    C15     C    0.75023   0.75119   0.74997   1.000
    C16     C    0.49180   0.08891   0.17674   1.000
    C17     C    0.49168   0.08976   0.67674   1.000
    C18     C    0.49180   0.58882   0.17672   1.000
    C19     C    0.49160   0.58976   0.67673   1.000
    C20     C    0.99178   0.08890   0.17674   1.000
    C21     C    0.99165   0.08977   0.67675   1.000
    C22     C    0.99179   0.58884   0.17673   1.000
    C23     C    0.99159   0.58976   0.67671   1.000
    C24     C    0.00880   0.41171   0.32329   1.000
    C25     C    0.00854   0.41273   0.82331   1.000
    C26     C    0.00871   0.91164   0.32329   1.000
    C27     C    0.00856   0.91269   0.82300   1.000
    C28     C    0.50880   0.41173   0.32329   1.000
    C29     C    0.50851   0.41272   0.82331   1.000
    C30     C    0.50868   0.91165   0.32330   1.000
    C31     C    0.50855   0.91269   0.82330   1.000
    C32     C    0.15159   0.48405   0.09455   1.000
    C33     C    0.15184   0.48506   0.59471   1.000
    C34     C    0.15176   0.98432   0.09453   1.000
    C35     C    0.15191   0.98512   0.59470   1.000
    C36     C    0.65153   0.48400   0.09450   1.000
    C37     C    0.65182   0.48506   0.59473   1.000
    C38     C    0.65176   0.98436   0.09453   1.000
    C39     C    0.65196   0.98515   0.59478   1.000
    C40     C    0.38285   0.45476   0.03571   1.000
    C41     C    0.38315   0.45490   0.53589   1.000
    C42     C    0.38290   0.95487   0.03575   1.000
    C43     C    0.38323   0.95493   0.53595   1.000
    C44     C    0.88285   0.45476   0.03574   1.000
    C45     C    0.88311   0.45490   0.53588   1.000
    C46     C    0.88287   0.95488   0.03576   1.000
    C47     C    0.88315   0.95495   0.53595   1.000
    C48     C    0.34877   0.38942   0.40569   1.000
    C49     C    0.34839   0.39006   0.90553   1.000
    C50     C    0.34884   0.88928   0.40572   1.000
    C51     C    0.34845   0.89002   0.90554   1.000
    C52     C    0.84872   0.38939   0.40567   1.000
    C53     C    0.84835   0.39011   0.90554   1.000
    C54     C    0.84879   0.88928   0.40571   1.000
    C55     C    0.84844   0.89002   0.90553   1.000
    C56     C    0.11736   0.41897   0.46465   1.000
    C57     C    0.11699   0.41885   0.96444   1.000
    C58     C    0.11739   0.91896   0.46471   1.000
    C59     C    0.11698   0.91891   0.96447   1.000
    C60     C    0.61738   0.41899   0.46467   1.000
    C61     C    0.61699   0.41883   0.96442   1.000
    C62     C    0.61743   0.91897   0.46469   1.000
    C63     C    0.61702   0.91893   0.96447   1.000
    C64     C    0.34832   0.01596   0.40540   1.000
    C65     C    0.34844   0.01689   0.90558   1.000
    C66     C    0.34846   0.51614   0.40538   1.000
    C67     C    0.34846   0.51699   0.90562   1.000
    C68     C    0.84832   0.01596   0.40539   1.000
    C69     C    0.84840   0.01689   0.90500   1.000
    C70     C    0.84841   0.51611   0.40530   1.000
    C71     C    0.84850   0.51702   0.90563   1.000
    C72     C    0.11722   0.04593   0.46417   1.000
    C73     C    0.11746   0.04607   0.96433   1.000
    C74     C    0.11724   0.54600   0.46416   1.000
    C75     C    0.11749   0.54609   0.96438   1.000
    C76     C    0.61723   0.04596   0.46416   1.000
    C77     C    0.61744   0.04610   0.96432   1.000
    C78     C    0.61725   0.54602   0.46419   1.000
    C79     C    0.61747   0.54607   0.96435   1.000
    C80     C    0.15185   0.11106   0.09432   1.000
    C81     C    0.15160   0.11168   0.59400   1.000
    C82     C    0.15205   0.61081   0.09431   1.000
    C83     C    0.15155   0.61166   0.59417   1.000
    C84     C    0.65179   0.11109   0.09431   1.000
    C85     C    0.65161   0.11171   0.59422   1.000
    C86     C    0.65209   0.61075   0.09430   1.000
    C87     C    0.65154   0.61166   0.59419   1.000
    C88     C    0.38302   0.08197   0.03549   1.000
    C89     C    0.38281   0.08187   0.53533   1.000
    C90     C    0.38313   0.58195   0.03554   1.000
    C91     C    0.38273   0.58188   0.53530   1.000
    C92     C    0.88304   0.08198   0.03551   1.000
    C93     C    0.88275   0.08187   0.53532   1.000
    C94     C    0.88307   0.58194   0.03555   1.000
    C95     C    0.88271   0.58189   0.53529   1.000
    C96     C    0.07477   0.04791   0.09481   1.000
    C97     C    0.07470   0.04853   0.59483   1.000
    C98     C    0.07478   0.54776   0.09480   1.000
    C99     C    0.07465   0.54851   0.59479   1.000
    C100    C    0.57473   0.04794   0.09480   1.000
    C101    C    0.57473   0.04853   0.59483   1.000
    C102    C    0.57476   0.54772   0.09479   1.000
    C103    C    0.57464   0.54851   0.59482   1.000
    C104    C    0.45914   0.01728   0.03350   1.000
    C105    C    0.45917   0.01737   0.53352   1.000
    C106    C    0.45916   0.51720   0.03350   1.000
    C107    C    0.45911   0.51739   0.53350   1.000
    C108    C    0.95914   0.01729   0.03352   1.000
    C109    C    0.95912   0.01737   0.53352   1.000
    C110    C    0.95912   0.51721   0.03352   1.000
    C111    C    0.95908   0.51739   0.53348   1.000
    C112    C    0.42567   0.45265   0.40519   1.000
    C113    C    0.42547   0.45331   0.90522   1.000
    C114    C    0.42563   0.95256   0.40522   1.000
    C115    C    0.42549   0.95328   0.90521   1.000
    C116    C    0.92562   0.45263   0.40518   1.000
    C117    C    0.92548   0.45333   0.90523   1.000
    C118    C    0.92561   0.95254   0.40521   1.000
    C119    C    0.92547   0.95329   0.90520   1.000
    C120    C    0.04113   0.48355   0.46650   1.000
    C121    C    0.04107   0.48366   0.96653   1.000
    C122    C    0.04113   0.98352   0.46653   1.000
    C123    C    0.04104   0.98370   0.96651   1.000
    C124    C    0.54113   0.48356   0.46652   1.000
    C125    C    0.54107   0.48365   0.96651   1.000
    C126    C    0.54118   0.98354   0.46650   1.000
    C127    C    0.54107   0.98371   0.96650   1.000
    C128    C    0.39982   0.49777   0.18337   1.000
    C129    C    0.39955   0.49880   0.68344   1.000
    C130    C    0.39980   0.99789   0.18338   1.000
    C131    C    0.39962   0.99884   0.68345   1.000
    C132    C    0.89980   0.49779   0.18338   1.000
    C133    C    0.89954   0.49880   0.68343   1.000
    C134    C    0.89978   0.99788   0.18338   1.000
    C135    C    0.89959   0.99884   0.68345   1.000
    C136    C    0.10074   0.31400   0.31672   1.000
    C137    C    0.10065   0.31508   0.81668   1.000
    C138    C    0.10062   0.81391   0.31669   1.000
    C139    C    0.10065   0.81504   0.81667   1.000
    C140    C    0.60075   0.31402   0.31670   1.000
    C141    C    0.60062   0.31507   0.81667   1.000
    C142    C    0.60060   0.81393   0.31669   1.000
    C143    C    0.60065   0.81503   0.81666   1.000
    C144    C    0.10059   0.00272   0.31666   1.000
    C145    C    0.10031   0.00387   0.81670   1.000
    C146    C    0.10064   0.50284   0.31667   1.000
    C147    C    0.10028   0.50393   0.81673   1.000
    C148    C    0.60056   0.00273   0.31660   1.000
    C149    C    0.60031   0.00385   0.81670   1.000
    C150    C    0.60062   0.50287   0.31667   1.000
    C151    C    0.60026   0.50392   0.81672   1.000
    C152    C    0.39990   0.18664   0.18329   1.000
    C153    C    0.39977   0.18747   0.68326   1.000
    C154    C    0.39987   0.68654   0.18326   1.000
    C155    C    0.39972   0.68747   0.68324   1.000
    C156    C    0.89988   0.18663   0.18328   1.000
    C157    C    0.89977   0.18748   0.68320   1.000
    C158    C    0.89987   0.68656   0.18327   1.000
    C159    C    0.89972   0.68747   0.68323   1.000
    C160    C    0.13587   0.11566   0.23055   1.000
    C161    C    0.13571   0.11660   0.73057   1.000
    C162    C    0.13588   0.61563   0.23053   1.000
    C163    C    0.13561   0.61661   0.73054   1.000
    C164    C    0.63587   0.11567   0.23054   1.000
    C165    C    0.63565   0.11662   0.73058   1.000
    C166    C    0.63585   0.61564   0.23052   1.000
    C167    C    0.63561   0.61661   0.73054   1.000
    C168    C    0.36476   0.38492   0.26949   1.000
    C169    C    0.36445   0.38596   0.76951   1.000
    C170    C    0.36467   0.88488   0.26947   1.000
    C171    C    0.36449   0.88594   0.76950   1.000
    C172    C    0.86476   0.38491   0.26947   1.000
    C173    C    0.86444   0.38597   0.76952   1.000
    C174    C    0.86465   0.88489   0.26947   1.000
    C175    C    0.86447   0.88594   0.76950   1.000
    O176    O    0.42114   0.54957   0.03452   1.000
    O177    O    0.42101   0.48598   0.03460   1.000
    O178    O    0.51696   0.53246   0.06414   1.000
    O179    O    0.50012   0.50042   0.00000   1.000
    O180    O    0.42108   0.04962   0.03449   1.000
    O181    O    0.42102   0.98607   0.03462   1.000
    O182    O    0.51693   0.03261   0.06415   1.000
    O183    O    0.50010   0.00049   0.00000   1.000
    O184    O    0.92110   0.54958   0.03453   1.000
    O185    O    0.92099   0.48599   0.03463   1.000
    O186    O    0.01695   0.53248   0.06416   1.000
    O187    O    0.00010   0.50044   0.00002   1.000
    O188    O    0.92109   0.04963   0.03451   1.000
    O189    O    0.92100   0.98608   0.03464   1.000
    O190    O    0.01695   0.03260   0.06416   1.000
    O191    O    0.00009   0.00049   0.00001   1.000
    O192    O    0.61343   0.57923   0.09454   1.000
    O193    O    0.11342   0.57928   0.09456   1.000
    O194    O    0.61326   0.07952   0.09456   1.000
    O195    O    0.11331   0.07948   0.09456   1.000
    O196    O    0.61315   0.51586   0.09464   1.000
    O197    O    0.61324   0.01615   0.09466   1.000
    O198    O    0.11327   0.01611   0.09467   1.000
    O199    O    0.11319   0.51590   0.09467   1.000
    O200    O    0.53328   0.56827   0.13575   1.000
    O201    O    0.53326   0.06843   0.13577   1.000
    O202    O    0.03328   0.56830   0.13576   1.000
    O203    O    0.03327   0.06841   0.13578   1.000
    O204    O    0.44583   0.63768   0.17999   1.000
    O205    O    0.44581   0.54330   0.18004   1.000
    O206    O    0.56382   0.60223   0.20362   1.000
    O207    O    0.94583   0.63770   0.18000   1.000
    O208    O    0.94579   0.54331   0.18005   1.000
    O209    O    0.06383   0.60224   0.20363   1.000
    O210    O    0.44585   0.13778   0.18001   1.000
    O211    O    0.44580   0.04340   0.18006   1.000
    O212    O    0.56383   0.10229   0.20364   1.000
    O213    O    0.94583   0.13777   0.18001   1.000
    O214    O    0.94578   0.04339   0.18006   1.000
    O215    O    0.06383   0.10228   0.20364   1.000
    O216    O    0.32512   0.71839   0.21663   1.000
    O217    O    0.82510   0.71840   0.21664   1.000
    O218    O    0.82516   0.21846   0.21666   1.000
    O219    O    0.32518   0.21846   0.21666   1.000
    O220    O    0.32510   0.49904   0.21671   1.000
    O221    O    0.32506   0.99909   0.21671   1.000
    O222    O    0.82508   0.49906   0.21671   1.000
    O223    O    0.82503   0.99909   0.21671   1.000
    O224    O    0.69309   0.68294   0.24026   1.000
    O225    O    0.19312   0.68293   0.24027   1.000
    O226    O    0.69316   0.18298   0.24029   1.000
    O227    O    0.19317   0.18297   0.24029   1.000
    O228    O    0.30752   0.81756   0.25974   1.000
    O229    O    0.17550   0.78207   0.28335   1.000
    O230    O    0.80749   0.81756   0.25974   1.000
    O231    O    0.67547   0.78208   0.28335   1.000
    O232    O    0.67542   0.00151   0.28332   1.000
    O233    O    0.30762   0.31760   0.25976   1.000
    O234    O    0.17560   0.28214   0.28338   1.000
    O235    O    0.80760   0.31760   0.25975   1.000
    O236    O    0.67560   0.28216   0.28337   1.000
    O237    O    0.17545   0.00151   0.28335   1.000
    O238    O    0.17551   0.50158   0.28336   1.000
    O239    O    0.67548   0.50160   0.28336   1.000
    O240    O    0.93678   0.39831   0.29638   1.000
    O241    O    0.93668   0.89826   0.29638   1.000
    O242    O    0.43668   0.89827   0.29638   1.000
    O243    O    0.43678   0.39832   0.29639   1.000
    O244    O    0.55462   0.95719   0.31995   1.000
    O245    O    0.05465   0.95718   0.31997   1.000
    O246    O    0.05472   0.45728   0.31998   1.000
    O247    O    0.55471   0.45730   0.31998   1.000
    O248    O    0.05467   0.86277   0.31999   1.000
    O249    O    0.55464   0.86279   0.31999   1.000
    O250    O    0.55477   0.36287   0.31999   1.000
    O251    O    0.05477   0.36286   0.32000   1.000
    O252    O    0.46724   0.43219   0.36424   1.000
    O253    O    0.96716   0.93209   0.36425   1.000
    O254    O    0.96721   0.43217   0.36423   1.000
    O255    O    0.46715   0.93211   0.36426   1.000
    O256    O    0.88701   0.48437   0.40524   1.000
    O257    O    0.88717   0.42101   0.40542   1.000
    O258    O    0.98338   0.46809   0.43584   1.000
    O259    O    0.38707   0.48439   0.40528   1.000
    O260    O    0.38722   0.42104   0.40544   1.000
    O261    O    0.48340   0.46811   0.43585   1.000
    O262    O    0.88696   0.98425   0.40530   1.000
    O263    O    0.88720   0.92091   0.40546   1.000
    O264    O    0.98337   0.96803   0.43587   1.000
    O265    O    0.38697   0.98426   0.40531   1.000
    O266    O    0.38723   0.92092   0.40547   1.000
    O267    O    0.48341   0.96805   0.43586   1.000
    O268    O    0.57921   0.01475   0.46533   1.000
    O269    O    0.07919   0.51478   0.46533   1.000
    O270    O    0.07918   0.01473   0.46535   1.000
    O271    O    0.57919   0.51479   0.46535   1.000
    O272    O    0.07925   0.45126   0.46557   1.000
    O273    O    0.57925   0.45128   0.46559   1.000
    O274    O    0.57931   0.95125   0.46559   1.000
    O275    O    0.07926   0.95124   0.46562   1.000
    O276    O    0.50018   0.00046   0.50001   1.000
    O277    O    0.00010   0.50047   0.49999   1.000
    O278    O    0.50012   0.50048   0.50001   1.000
    O279    O    0.00013   0.00045   0.50002   1.000
    O280    O    0.92090   0.54964   0.53438   1.000
    O281    O    0.92109   0.48614   0.53468   1.000
    O282    O    0.01686   0.53295   0.56413   1.000
    O283    O    0.42092   0.54964   0.53440   1.000
    O284    O    0.42113   0.48615   0.53469   1.000
    O285    O    0.51688   0.53295   0.56416   1.000
    O286    O    0.92093   0.04962   0.53442   1.000
    O287    O    0.92113   0.98616   0.53473   1.000
    O288    O    0.01691   0.03295   0.56417   1.000
    O289    O    0.42099   0.04962   0.53442   1.000
    O290    O    0.42120   0.98615   0.53473   1.000
    O291    O    0.51695   0.03295   0.56417   1.000
    O292    O    0.11315   0.08010   0.59441   1.000
    O293    O    0.11310   0.58008   0.59448   1.000
    O294    O    0.61309   0.58009   0.59450   1.000
    O295    O    0.61317   0.08012   0.59452   1.000
    O296    O    0.11330   0.01682   0.59476   1.000
    O297    O    0.11324   0.51678   0.59475   1.000
    O298    O    0.61323   0.51679   0.59477   1.000
    O299    O    0.61335   0.01684   0.59480   1.000
    O300    O    0.03312   0.56913   0.63575   1.000
    O301    O    0.53312   0.56914   0.63577   1.000
    O302    O    0.53321   0.06915   0.63578   1.000
    O303    O    0.03318   0.06915   0.63579   1.000
    O304    O    0.94566   0.63861   0.67997   1.000
    O305    O    0.94557   0.54428   0.68007   1.000
    O306    O    0.06360   0.60318   0.70362   1.000
    O307    O    0.44566   0.63862   0.67998   1.000
    O308    O    0.44558   0.54428   0.68008   1.000
    O309    O    0.56360   0.60319   0.70363   1.000
    O310    O    0.44573   0.13861   0.68000   1.000
    O311    O    0.44565   0.04430   0.68009   1.000
    O312    O    0.56367   0.10319   0.70366   1.000
    O313    O    0.94571   0.13862   0.67997   1.000
    O314    O    0.94562   0.04431   0.68010   1.000
    O315    O    0.06368   0.10319   0.70366   1.000
    O316    O    0.82501   0.21934   0.71659   1.000
    O317    O    0.82498   0.71933   0.71660   1.000
    O318    O    0.32496   0.71933   0.71660   1.000
    O319    O    0.32501   0.21934   0.71662   1.000
    O320    O    0.82477   0.50008   0.71676   1.000
    O321    O    0.32477   0.50007   0.71676   1.000
    O322    O    0.32485   0.00008   0.71678   1.000
    O323    O    0.82482   0.00009   0.71678   1.000
    O324    O    0.69280   0.55898   0.74031   1.000
    O325    O    0.19280   0.55898   0.74031   1.000
    O326    O    0.19289   0.05896   0.74034   1.000
    O327    O    0.69285   0.05897   0.74034   1.000
    O328    O    0.67544   0.78311   0.78331   1.000
    O329    O    0.17543   0.78312   0.78332   1.000
    O330    O    0.17545   0.28314   0.78333   1.000
    O331    O    0.67543   0.28314   0.78333   1.000
    O332    O    0.80722   0.44366   0.75980   1.000
    O333    O    0.67513   0.50263   0.78340   1.000
    O334    O    0.30722   0.44365   0.75980   1.000
    O335    O    0.17514   0.50264   0.78341   1.000
    O336    O    0.30728   0.94363   0.75980   1.000
    O337    O    0.17519   0.00259   0.78340   1.000
    O338    O    0.80726   0.94363   0.75980   1.000
    O339    O    0.67518   0.00259   0.78340   1.000
    O340    O    0.93651   0.89932   0.79625   1.000
    O341    O    0.43652   0.89931   0.79640   1.000
    O342    O    0.43648   0.39934   0.79641   1.000
    O343    O    0.93649   0.39935   0.79641   1.000
    O344    O    0.55460   0.86386   0.81998   1.000
    O345    O    0.05461   0.86387   0.81983   1.000
    O346    O    0.55456   0.36390   0.81999   1.000
    O347    O    0.05459   0.36390   0.81999   1.000
    O348    O    0.55443   0.95827   0.82000   1.000
    O349    O    0.05443   0.95828   0.81985   1.000
    O350    O    0.55438   0.45832   0.82001   1.000
    O351    O    0.05441   0.45833   0.82002   1.000
    O352    O    0.96701   0.93299   0.86410   1.000
    O353    O    0.46702   0.93299   0.86425   1.000
    O354    O    0.96701   0.43303   0.86427   1.000
    O355    O    0.46699   0.43302   0.86426   1.000
    O356    O    0.88693   0.98509   0.90510   1.000
    O357    O    0.88695   0.92166   0.90536   1.000
    O358    O    0.98325   0.96849   0.93585   1.000
    O359    O    0.38697   0.92165   0.90537   1.000
    O360    O    0.38696   0.98509   0.90539   1.000
    O361    O    0.48328   0.96850   0.93585   1.000
    O362    O    0.38693   0.42169   0.90537   1.000
    O363    O    0.38697   0.48515   0.90542   1.000
    O364    O    0.48327   0.46848   0.93586   1.000
    O365    O    0.88692   0.42172   0.90538   1.000
    O366    O    0.88699   0.48518   0.90543   1.000
    O367    O    0.98328   0.46850   0.93588   1.000
    O368    O    0.57925   0.01490   0.96541   1.000
    O369    O    0.07925   0.01488   0.96542   1.000
    O370    O    0.57927   0.51486   0.96543   1.000
    O371    O    0.07928   0.51488   0.96545   1.000
    O372    O    0.57903   0.45124   0.96546   1.000
    O373    O    0.07903   0.45126   0.96548   1.000
    O374    O    0.07901   0.95130   0.96549   1.000
    O375    O    0.57904   0.95132   0.96548   1.000
    O376    O    0.19309   0.05798   0.24030   1.000
    O377    O    0.19298   0.18390   0.74028   1.000
    O378    O    0.19313   0.55797   0.24029   1.000
    O379    O    0.19291   0.68390   0.74025   1.000
    O380    O    0.69307   0.05798   0.24029   1.000
    O381    O    0.69294   0.18391   0.74028   1.000
    O382    O    0.69310   0.55798   0.24028   1.000
    O383    O    0.69292   0.68390   0.74025   1.000
    O384    O    0.30757   0.44262   0.25977   1.000
    O385    O    0.30735   0.31858   0.75975   1.000
    O386    O    0.30749   0.94259   0.25976   1.000
    O387    O    0.30735   0.81857   0.75973   1.000
    O388    O    0.80755   0.44262   0.25976   1.000
    O389    O    0.80734   0.31859   0.75975   1.000
    O390    O    0.80746   0.94259   0.25975   1.000
    O391    O    0.80735   0.81856   0.75973   1.000
loop_
    _geom_bond_atom_site_label_1
    _geom_bond_atom_site_label_2
    _geom_bond_distance
    _geom_bond_site_symmetry_2
    _ccdc_geom_bond_type
    C106   O176      0.55000      .   S
    C90    O176      0.55000      .   S
    C106   O177      0.54999      .   S
    C40    O177      0.54999      .   S
    C106   O178      0.76588      .   S
    C102   O178      0.76588      .   S
    C106   O179      0.76799      .   S
    C125   O179      0.76799  1_556   S
    C104   O180      0.55001      .   S
    C88    O180      0.55001      .   S
    C104   O181      0.54981  1_545   S
    C42    O181      0.54981      .   S
    C104   O182      0.76589      .   S
    C100   O182      0.76589      .   S
    C104   O183      0.76809      .   S
    C127   O183      0.76809  1_566   S
    C110   O184      0.55001      .   S
    C94    O184      0.55001      .   S
    C110   O185      0.55002      .   S
    C44    O185      0.55002      .   S
    C110   O186      0.76594  1_655   S
    C98    O186      0.76594      .   S
    C110   O187      0.76806  1_655   S
    C121   O187      0.76806  1_556   S
    C108   O188      0.55002      .   S
    C92    O188      0.55002      .   S
    C108   O189      0.54980  1_545   S
    C46    O189      0.54980      .   S
    C108   O190      0.76595  1_655   S
    C96    O190      0.76595      .   S
    C108   O191      0.76813  1_655   S
    C123   O191      0.76813  1_566   S
    C86    O192      0.55022      .   S
    C102   O192      0.55022      .   S
    C82    O193      0.55021      .   S
    C98    O193      0.55021      .   S
    C84    O194      0.55024      .   S
    C100   O194      0.55024      .   S
    C80    O195      0.55023      .   S
    C96    O195      0.55023      .   S
    C36    O196      0.55016      .   S
    C102   O196      0.55016      .   S
    C38    O197      0.55006  1_565   S
    C100   O197      0.55006      .   S
    C34    O198      0.55004  1_565   S
    C96    O198      0.55004      .   S
    C32    O199      0.55026      .   S
    C98    O199      0.55026      .   S
    C102   O200      0.90454      .   S
    C18    O200      0.90454      .   S
    C100   O201      0.90457      .   S
    C16    O201      0.90457      .   S
    C98    O202      0.90460      .   S
    C22    O202      0.90460  1_655   S
    C96    O203      0.90459      .   S
    C20    O203      0.90459  1_655   S
    C18    O204      0.76873      .   S
    C154   O204      0.76873      .   S
    C18    O205      0.76862      .   S
    C128   O205      0.76862      .   S
    C18    O206      0.79655      .   S
    C166   O206      0.79655      .   S
    C22    O207      0.76872      .   S
    C158   O207      0.76872      .   S
    C22    O208      0.76863      .   S
    C132   O208      0.76863      .   S
    C22    O209      0.79668  1_655   S
    C162   O209      0.79668      .   S
    C16    O210      0.76872      .   S
    C152   O210      0.76872      .   S
    C16    O211      0.76843      .   S
    C130   O211      0.76843  1_565   S
    C16    O212      0.79662      .   S
    C164   O212      0.79662      .   S
    C20    O213      0.76873      .   S
    C156   O213      0.76873      .   S
    C20    O214      0.76845      .   S
    C134   O214      0.76845  1_565   S
    C20    O215      0.79676  1_655   S
    C160   O215      0.79676      .   S
    C154   O216      0.96855      .   S
    C10    O216      0.96855      .   S
    C158   O217      0.96857      .   S
    C14    O217      0.96857      .   S
    C156   O218      0.96836      .   S
    C12    O218      0.96836      .   S
    C152   O219      0.96826      .   S
    C8     O219      0.96826      .   S
    C128   O220      0.96813      .   S
    C2     O220      0.96813      .   S
    C130   O221      0.96838      .   S
    C0     O221      0.96838  1_545   S
    C132   O222      0.96808      .   S
    C6     O222      0.96808      .   S
    C134   O223      0.96836      .   S
    C4     O223      0.96836  1_545   S
    C166   O224      1.00971      .   S
    C14    O224      1.00971      .   S
    C162   O225      1.00972      .   S
    C10    O225      1.00972      .   S
    C164   O226      1.01000      .   S
    C12    O226      1.01000      .   S
    C160   O227      1.01006      .   S
    C8     O227      1.01006      .   S
    C10    O228      1.00967      .   S
    C170   O228      1.00967      .   S
    C10    O229      0.96880      .   S
    C138   O229      0.96880      .   S
    C14    O230      1.00968      .   S
    C174   O230      1.00968      .   S
    C14    O231      0.96877      .   S
    C142   O231      0.96877      .   S
    C4     O232      0.96817      .   S
    C148   O232      0.96817      .   S
    C8     O233      1.00955      .   S
    C168   O233      1.00955      .   S
    C8     O234      0.96882      .   S
    C136   O234      0.96882      .   S
    C12    O235      1.00956      .   S
    C172   O235      1.00956      .   S
    C12    O236      0.96862      .   S
    C140   O236      0.96862      .   S
    C0     O237      0.96859      .   S
    C144   O237      0.96859      .   S
    C2     O238      0.96856      .   S
    C146   O238      0.96856      .   S
    C6     O239      0.96853      .   S
    C150   O239      0.96853      .   S
    C172   O240      0.79664      .   S
    C24    O240      0.79664  1_455   S
    C174   O241      0.79671      .   S
    C26    O241      0.79671  1_455   S
    C170   O242      0.79662      .   S
    C30    O242      0.79662      .   S
    C168   O243      0.79651      .   S
    C28    O243      0.79651      .   S
    C148   O244      0.76873  1_545   S
    C30    O244      0.76873      .   S
    C144   O245      0.76849  1_545   S
    C26    O245      0.76849      .   S
    C146   O246      0.76867      .   S
    C24    O246      0.76867      .   S
    C150   O247      0.76868      .   S
    C28    O247      0.76868      .   S
    C138   O248      0.76868      .   S
    C26    O248      0.76868      .   S
    C142   O249      0.76866      .   S
    C30    O249      0.76866      .   S
    C140   O250      0.76862      .   S
    C28    O250      0.76862      .   S
    C136   O251      0.76866      .   S
    C24    O251      0.76866      .   S
    C28    O252      0.90457      .   S
    C112   O252      0.90457      .   S
    C26    O253      0.90471  1_455   S
    C118   O253      0.90471      .   S
    C24    O254      0.90457  1_455   S
    C116   O254      0.90457      .   S
    C30    O255      0.90461      .   S
    C114   O255      0.90461      .   S
    C116   O256      0.55040      .   S
    C70    O256      0.55040      .   S
    C116   O257      0.55025      .   S
    C52    O257      0.55025      .   S
    C116   O258      0.76586      .   S
    C120   O258      0.76586  1_455   S
    C112   O259      0.55026      .   S
    C66    O259      0.55026      .   S
    C112   O260      0.55023      .   S
    C48    O260      0.55023      .   S
    C112   O261      0.76580      .   S
    C124   O261      0.76580      .   S
    C118   O262      0.55006      .   S
    C68    O262      0.55006  1_545   S
    C118   O263      0.55024      .   S
    C54    O263      0.55024      .   S
    C118   O264      0.76591      .   S
    C122   O264      0.76591  1_455   S
    C114   O265      0.55005      .   S
    C64    O265      0.55005  1_545   S
    C114   O266      0.55026      .   S
    C50    O266      0.55026      .   S
    C114   O267      0.76567      .   S
    C126   O267      0.76567      .   S
    C76    O268      0.54967      .   S
    C126   O268      0.54967  1_565   S
    C74    O269      0.54999      .   S
    C120   O269      0.54999      .   S
    C72    O270      0.54978      .   S
    C122   O270      0.54978  1_565   S
    C78    O271      0.54999      .   S
    C124   O271      0.54999      .   S
    C56    O272      0.55002      .   S
    C120   O272      0.55002      .   S
    C60    O273      0.55002      .   S
    C124   O273      0.55002      .   S
    C62    O274      0.55009      .   S
    C126   O274      0.55009      .   S
    C58    O275      0.55002      .   S
    C122   O275      0.55002      .   S
    C126   O276      0.76847  1_565   S
    C105   O276      0.76847      .   S
    C120   O277      0.76820      .   S
    C111   O277      0.76820  1_655   S
    C124   O278      0.76812      .   S
    C107   O278      0.76812      .   S
    C122   O279      0.76821  1_565   S
    C109   O279      0.76821  1_655   S
    C111   O280      0.55000      .   S
    C95    O280      0.55000      .   S
    C111   O281      0.55002      .   S
    C45    O281      0.55002      .   S
    C111   O282      0.76594  1_655   S
    C99    O282      0.76594      .   S
    C107   O283      0.55001      .   S
    C91    O283      0.55001      .   S
    C107   O284      0.55003      .   S
    C41    O284      0.55003      .   S
    C107   O285      0.76590      .   S
    C103   O285      0.76590      .   S
    C109   O286      0.54999      .   S
    C93    O286      0.54999      .   S
    C109   O287      0.54982  1_545   S
    C47    O287      0.54982      .   S
    C109   O288      0.76599  1_655   S
    C97    O288      0.76599      .   S
    C105   O289      0.55000      .   S
    C89    O289      0.55000      .   S
    C105   O290      0.54980  1_545   S
    C43    O290      0.54980      .   S
    C105   O291      0.76594      .   S
    C101   O291      0.76594      .   S
    C81    O292      0.55085      .   S
    C97    O292      0.55085      .   S
    C83    O293      0.55021      .   S
    C99    O293      0.55021      .   S
    C87    O294      0.55022      .   S
    C103   O294      0.55022      .   S
    C85    O295      0.55024      .   S
    C101   O295      0.55024      .   S
    C35    O296      0.54993  1_565   S
    C97    O296      0.54993      .   S
    C33    O297      0.55027      .   S
    C99    O297      0.55027      .   S
    C37    O298      0.55025      .   S
    C103   O298      0.55025      .   S
    C39    O299      0.55006  1_565   S
    C101   O299      0.55006      .   S
    C99    O300      0.90462      .   S
    C23    O300      0.90462  1_655   S
    C103   O301      0.90450      .   S
    C19    O301      0.90450      .   S
    C101   O302      0.90453      .   S
    C17    O302      0.90453      .   S
    C97    O303      0.90462      .   S
    C21    O303      0.90462  1_655   S
    C23    O304      0.76863      .   S
    C159   O304      0.76863      .   S
    C23    O305      0.76848      .   S
    C133   O305      0.76848      .   S
    C23    O306      0.79664  1_655   S
    C163   O306      0.79664      .   S
    C19    O307      0.76863      .   S
    C155   O307      0.76863      .   S
    C19    O308      0.76848      .   S
    C129   O308      0.76848      .   S
    C19    O309      0.79650      .   S
    C167   O309      0.79650      .   S
    C17    O310      0.76865      .   S
    C153   O310      0.76865      .   S
    C17    O311      0.76828      .   S
    C131   O311      0.76828  1_565   S
    C17    O312      0.79654      .   S
    C165   O312      0.79654      .   S
    C21    O313      0.76876      .   S
    C157   O313      0.76876      .   S
    C21    O314      0.76825      .   S
    C135   O314      0.76825  1_565   S
    C21    O315      0.79670  1_655   S
    C161   O315      0.79670      .   S
    C157   O316      0.96894      .   S
    C13    O316      0.96894      .   S
    C159   O317      0.96847      .   S
    C15    O317      0.96847      .   S
    C155   O318      0.96851      .   S
    C11    O318      0.96851      .   S
    C153   O319      0.96853      .   S
    C9     O319      0.96853      .   S
    C133   O320      0.96827      .   S
    C7     O320      0.96827      .   S
    C129   O321      0.96823      .   S
    C3     O321      0.96823      .   S
    C131   O322      0.96838  1_565   S
    C1     O322      0.96838      .   S
    C135   O323      0.96833  1_565   S
    C5     O323      0.96833      .   S
    C167   O324      1.00960      .   S
    C7     O324      1.00960      .   S
    C163   O325      1.00960      .   S
    C3     O325      1.00960      .   S
    C161   O326      1.00967      .   S
    C1     O326      1.00967      .   S
    C165   O327      1.00975      .   S
    C5     O327      1.00975      .   S
    C15    O328      0.96864      .   S
    C143   O328      0.96864      .   S
    C11    O329      0.96861      .   S
    C139   O329      0.96861      .   S
    C9     O330      0.96876      .   S
    C137   O330      0.96876      .   S
    C13    O331      0.96872      .   S
    C141   O331      0.96872      .   S
    C7     O332      1.00988      .   S
    C173   O332      1.00988      .   S
    C7     O333      0.96858      .   S
    C151   O333      0.96858      .   S
    C3     O334      1.00991      .   S
    C169   O334      1.00991      .   S
    C3     O335      0.96856      .   S
    C147   O335      0.96856      .   S
    C1     O336      1.00961  1_545   S
    C171   O336      1.00961      .   S
    C1     O337      0.96838      .   S
    C145   O337      0.96838      .   S
    C5     O338      1.00967  1_545   S
    C175   O338      1.00967      .   S
    C5     O339      0.96837      .   S
    C149   O339      0.96837      .   S
    C175   O340      0.79480      .   S
    C27    O340      0.79480  1_455   S
    C171   O341      0.79659      .   S
    C31    O341      0.79659      .   S
    C169   O342      0.79658      .   S
    C29    O342      0.79658      .   S
    C173   O343      0.79663      .   S
    C25    O343      0.79663  1_455   S
    C143   O344      0.76856      .   S
    C31    O344      0.76856      .   S
    C139   O345      0.76912      .   S
    C27    O345      0.76912      .   S
    C141   O346      0.76857      .   S
    C29    O346      0.76857      .   S
    C137   O347      0.76859      .   S
    C25    O347      0.76859      .   S
    C149   O348      0.76859  1_545   S
    C31    O348      0.76859      .   S
    C145   O349      0.76743  1_545   S
    C27    O349      0.76743      .   S
    C151   O350      0.76871      .   S
    C29    O350      0.76871      .   S
    C147   O351      0.76868      .   S
    C25    O351      0.76868      .   S
    C27    O352      0.90725  1_455   S
    C119   O352      0.90725      .   S
    C31    O353      0.90454      .   S
    C115   O353      0.90454      .   S
    C25    O354      0.90462  1_455   S
    C117   O354      0.90462      .   S
    C29    O355      0.90449      .   S
    C113   O355      0.90449      .   S
    C69    O356      0.55149  1_545   S
    C119   O356      0.55149      .   S
    C119   O357      0.55026      .   S
    C55    O357      0.55026      .   S
    C119   O358      0.76594      .   S
    C123   O358      0.76594  1_455   S
    C115   O359      0.55026      .   S
    C51    O359      0.55026      .   S
    C115   O360      0.55005      .   S
    C65    O360      0.55005  1_545   S
    C115   O361      0.76580      .   S
    C127   O361      0.76580      .   S
    C113   O362      0.55025      .   S
    C49    O362      0.55025      .   S
    C113   O363      0.55025      .   S
    C67    O363      0.55025      .   S
    C113   O364      0.76587      .   S
    C125   O364      0.76587      .   S
    C117   O365      0.55025      .   S
    C53    O365      0.55025      .   S
    C117   O366      0.55025      .   S
    C71    O366      0.55025      .   S
    C117   O367      0.76591      .   S
    C121   O367      0.76591  1_455   S
    C77    O368      0.54978      .   S
    C127   O368      0.54978  1_565   S
    C73    O369      0.54979      .   S
    C123   O369      0.54979  1_565   S
    C79    O370      0.54999      .   S
    C125   O370      0.54999      .   S
    C75    O371      0.54997      .   S
    C121   O371      0.54997      .   S
    C61    O372      0.55001      .   S
    C125   O372      0.55001      .   S
    C57    O373      0.55001      .   S
    C121   O373      0.55001      .   S
    C59    O374      0.55003      .   S
    C123   O374      0.55003      .   S
    C63    O375      0.55003      .   S
    C127   O375      0.55003      .   S
    C160   O376      1.01012      .   S
    C0     O376      1.01012      .   S
    C161   O377      1.00995      .   S
    C9     O377      1.00995      .   S
    C162   O378      1.01004      .   S
    C2     O378      1.01004      .   S
    C163   O379      1.00990      .   S
    C11    O379      1.00990      .   S
    C164   O380      1.01010      .   S
    C4     O380      1.01010      .   S
    C165   O381      1.00997      .   S
    C13    O381      1.00997      .   S
    C166   O382      1.01005      .   S
    C6     O382      1.01005      .   S
    C167   O383      1.00993      .   S
    C15    O383      1.00993      .   S
    C168   O384      1.00992      .   S
    C2     O384      1.00992      .   S
    C169   O385      1.00997      .   S
    C9     O385      1.00997      .   S
    C170   O386      1.00984      .   S
    C0     O386      1.00984  1_545   S
    C171   O387      1.01012      .   S
    C11    O387      1.01012      .   S
    C172   O388      1.00996      .   S
    C6     O388      1.00996      .   S
    C173   O389      1.01003      .   S
    C13    O389      1.01003      .   S
    C174   O390      1.00992      .   S
    C4     O390      1.00992  1_545   S
    C175   O391      1.01004      .   S
    C15    O391      1.01004      .   S
