# CIF file generated by openbabel 2.4.90, see http://openbabel.sf.net
data_I
_chemical_name_common ''
_cell_length_a 8.578
_cell_length_b 13.866
_cell_length_c 21.033
_cell_angle_alpha 109.128
_cell_angle_beta 92.71
_cell_angle_gamma 89.975
_space_group_name_H-M_alt 'P 1'
_space_group_name_Hall 'P 1'
loop_
    _symmetry_equiv_pos_as_xyz
    x,y,z
loop_
    _atom_site_label
    _atom_site_type_symbol
    _atom_site_fract_x
    _atom_site_fract_y
    _atom_site_fract_z
    _atom_site_occupancy
    Zr0     Zr   0.25032   0.00030   0.25005   1.000
    Zr1     Zr   0.25007   0.00132   0.75011   1.000
    Zr2     Zr   0.25038   0.50032   0.25005   1.000
    Zr3     Zr   0.24999   0.50135   0.75009   1.000
    Zr4     Zr   0.75027   0.00030   0.25004   1.000
    Zr5     Zr   0.75006   0.00133   0.75011   1.000
    Zr6     Zr   0.75035   0.50033   0.25005   1.000
    Zr7     Zr   0.74999   0.50135   0.75009   1.000
    Zr8     Zr   0.25047   0.25029   0.25004   1.000
    Zr9     Zr   0.25026   0.25121   0.74999   1.000
    Zr10    Zr   0.25037   0.75023   0.25001   1.000
    Zr11    Zr   0.25021   0.75119   0.74997   1.000
    Zr12    Zr   0.75045   0.25029   0.25004   1.000
    Zr13    Zr   0.75024   0.25121   0.74999   1.000
    Zr14    Zr   0.75033   0.75024   0.25001   1.000
    Zr15    Zr   0.75023   0.75119   0.74997   1.000
    N16     N    0.00013   0.50061   0.00002   1.000
    O17     O    0.91260   0.49983   0.10837   1.000
    O18     O    0.91261   0.60950   0.10833   1.000
    O19     O    0.08763   0.50162   0.89171   1.000
    O20     O    0.90367   0.47213   0.87991   1.000
    O21     O    0.90374   0.40960   0.87989   1.000
    O22     O    0.09663   0.52929   0.12015   1.000
    O23     O    0.09663   0.59177   0.12014   1.000
    O24     O    0.08779   0.39187   0.89168   1.000
    N25     N    0.00013   0.00065   0.99997   1.000
    O26     O    0.08778   0.89188   0.89164   1.000
    O27     O    0.09665   0.09181   0.12013   1.000
    O28     O    0.09661   0.02931   0.12013   1.000
    O29     O    0.91264   0.10955   0.10831   1.000
    O30     O    0.08766   0.00162   0.89169   1.000
    O31     O    0.91258   0.99987   0.10834   1.000
    O32     O    0.90374   0.90961   0.87985   1.000
    O33     O    0.90370   0.97214   0.87989   1.000
    N34     N    0.50017   0.00059   0.50002   1.000
    O35     O    0.59651   0.02978   0.62018   1.000
    O36     O    0.59656   0.09225   0.62015   1.000
    O37     O    0.58782   0.89133   0.39169   1.000
    O38     O    0.58779   0.00105   0.39167   1.000
    O39     O    0.41259   0.10996   0.60832   1.000
    O40     O    0.40384   0.90907   0.37988   1.000
    O41     O    0.40383   0.97159   0.37989   1.000
    O42     O    0.41251   0.00033   0.60840   1.000
    N43     N    0.50013   0.00065   0.00001   1.000
    O44     O    0.41259   0.99987   0.10836   1.000
    O45     O    0.58779   0.89188   0.89166   1.000
    O46     O    0.58766   0.00162   0.89171   1.000
    O47     O    0.59664   0.09182   0.12015   1.000
    O48     O    0.59660   0.02932   0.12015   1.000
    O49     O    0.41266   0.10956   0.10834   1.000
    O50     O    0.40374   0.90961   0.87987   1.000
    O51     O    0.40371   0.97214   0.87991   1.000
    N52     N    0.50015   0.50062   0.50001   1.000
    O53     O    0.58782   0.50111   0.39168   1.000
    O54     O    0.58788   0.39139   0.39169   1.000
    O55     O    0.41246   0.50035   0.60839   1.000
    O56     O    0.41256   0.60998   0.60831   1.000
    O57     O    0.59648   0.52980   0.62016   1.000
    O58     O    0.59654   0.59226   0.62013   1.000
    O59     O    0.40386   0.47162   0.37989   1.000
    O60     O    0.40388   0.40911   0.37989   1.000
    N61     N    0.00014   0.50061   0.49999   1.000
    O62     O    0.08787   0.39138   0.39169   1.000
    O63     O    0.91245   0.50034   0.60838   1.000
    O64     O    0.08782   0.50109   0.39168   1.000
    O65     O    0.91256   0.60997   0.60830   1.000
    O66     O    0.90387   0.40910   0.37987   1.000
    O67     O    0.90385   0.47161   0.37988   1.000
    O68     O    0.09647   0.52979   0.62015   1.000
    O69     O    0.09652   0.59225   0.62012   1.000
    N70     N    0.00015   0.00058   0.50001   1.000
    O71     O    0.91249   0.00033   0.60839   1.000
    O72     O    0.08780   0.00104   0.39168   1.000
    O73     O    0.91258   0.10996   0.60830   1.000
    O74     O    0.90382   0.90907   0.37987   1.000
    O75     O    0.90381   0.97158   0.37988   1.000
    O76     O    0.08782   0.89132   0.39168   1.000
    O77     O    0.09657   0.09224   0.62014   1.000
    O78     O    0.09652   0.02977   0.62017   1.000
    N79     N    0.50013   0.50059   0.00000   1.000
    O80     O    0.58778   0.39186   0.89167   1.000
    O81     O    0.58763   0.50161   0.89170   1.000
    O82     O    0.41262   0.60949   0.10832   1.000
    O83     O    0.40367   0.47212   0.87990   1.000
    O84     O    0.40374   0.40959   0.87988   1.000
    O85     O    0.41261   0.49981   0.10836   1.000
    O86     O    0.59661   0.59176   0.12013   1.000
    O87     O    0.59661   0.52928   0.12014   1.000
loop_
    _geom_bond_atom_site_label_1
    _geom_bond_atom_site_label_2
    _geom_bond_distance
    _geom_bond_site_symmetry_2
    _ccdc_geom_bond_type
    N16    O17       2.43619  1_455   S
    Zr6    O17       3.34612      .   S
    N16    O18       2.43714  1_455   S
    Zr14   O18       3.34739      .   S
    N16    O19       2.43628  1_554   S
    Zr3    O19       3.34630      .   S
    N16    O20       2.52412  1_454   S
    Zr7    O20       3.12120      .   S
    N16    O21       2.52472  1_454   S
    Zr13   O21       3.12274      .   S
    N16    O22       2.52429      .   S
    Zr2    O22       3.12143      .   S
    N16    O23       2.52524      .   S
    Zr10   O23       3.12356      .   S
    N16    O24       2.43736  1_554   S
    Zr9    O24       3.34792      .   S
    N25    O26       2.43718  1_545   S
    Zr11   O26       3.34765      .   S
    N25    O27       2.52597  1_556   S
    Zr8    O27       3.12447      .   S
    N25    O28       2.52492  1_556   S
    Zr0    O28       3.12194      .   S
    N25    O29       2.43766  1_456   S
    Zr12   O29       3.34776      .   S
    N25    O30       2.43570      .   S
    Zr1    O30       3.34547      .   S
    N25    O31       2.43675  1_446   S
    Zr4    O31       3.34695  1_545   S
    N25    O32       2.52450  1_445   S
    Zr15   O32       3.12272      .   S
    N25    O33       2.52346  1_445   S
    Zr5    O33       3.12001  1_545   S
    N34    O35       2.52324      .   S
    Zr5    O35       3.11836      .   S
    N34    O36       2.52630      .   S
    Zr13   O36       3.12588      .   S
    N34    O37       2.43948  1_545   S
    Zr14   O37       3.34967      .   S
    N34    O38       2.43518      .   S
    Zr4    O38       3.34497      .   S
    N34    O39       2.43929      .   S
    Zr9    O39       3.34946      .   S
    N34    O40       2.52592  1_545   S
    Zr10   O40       3.12494      .   S
    N34    O41       2.52306  1_545   S
    Zr0    O41       3.11809  1_545   S
    N34    O42       2.43498      .   S
    Zr1    O42       3.34537      .   S
    N43    O44       2.43637  1_545   S
    Zr0    O44       3.34664  1_545   S
    N43    O45       2.43757  1_544   S
    Zr15   O45       3.34802      .   S
    N43    O46       2.43606  1_554   S
    Zr5    O46       3.34582      .   S
    N43    O47       2.52556      .   S
    Zr12   O47       3.12417      .   S
    N43    O48       2.52440      .   S
    Zr4    O48       3.12140      .   S
    N43    O49       2.43736      .   S
    Zr8    O49       3.34734      .   S
    N43    O50       2.52486  1_544   S
    Zr11   O50       3.12308      .   S
    N43    O51       2.52382  1_544   S
    Zr1    O51       3.12031  1_545   S
    N52    O53       2.43490      .   S
    Zr6    O53       3.34513      .   S
    N52    O54       2.43936      .   S
    Zr12   O54       3.34951      .   S
    N52    O55       2.43512      .   S
    Zr3    O55       3.34532      .   S
    N52    O56       2.43919      .   S
    Zr11   O56       3.34935      .   S
    N52    O57       2.52305      .   S
    Zr7    O57       3.11827      .   S
    N52    O58       2.52608      .   S
    Zr15   O58       3.12576      .   S
    N52    O59       2.52273      .   S
    Zr2    O59       3.11791      .   S
    N52    O60       2.52545      .   S
    Zr8    O60       3.12435      .   S
    N61    O62       2.43918      .   S
    Zr8    O62       3.34953      .   S
    N61    O63       2.43520  1_455   S
    Zr7    O63       3.34546      .   S
    N61    O64       2.43477      .   S
    Zr2    O64       3.34507      .   S
    N61    O65       2.43926  1_455   S
    Zr15   O65       3.34941      .   S
    N61    O66       2.52539  1_455   S
    Zr12   O66       3.12415      .   S
    N61    O67       2.52268  1_455   S
    Zr6    O67       3.11778      .   S
    N61    O68       2.52322      .   S
    Zr3    O68       3.11841      .   S
    N61    O69       2.52623      .   S
    Zr11   O69       3.12586      .   S
    N70    O71       2.43510  1_455   S
    Zr5    O71       3.34545      .   S
    N70    O72       2.43478      .   S
    Zr0    O72       3.34512      .   S
    N70    O73       2.43918  1_455   S
    Zr13   O73       3.34980      .   S
    N70    O74       2.52579  1_445   S
    Zr14   O74       3.12484      .   S
    N70    O75       2.52299  1_445   S
    Zr4    O75       3.11816  1_545   S
    N70    O76       2.43945  1_545   S
    Zr10   O76       3.34966      .   S
    N70    O77       2.52645      .   S
    Zr9    O77       3.12607      .   S
    N70    O78       2.52341      .   S
    Zr1    O78       3.11856      .   S
    N79    O80       2.43721  1_554   S
    Zr13   O80       3.34771      .   S
    N79    O81       2.43620  1_554   S
    Zr7    O81       3.34619      .   S
    N79    O82       2.43721      .   S
    Zr10   O82       3.34748      .   S
    N79    O83       2.52403  1_554   S
    Zr3    O83       3.12108      .   S
    N79    O84       2.52460  1_554   S
    Zr9    O84       3.12251      .   S
    N79    O85       2.43623      .   S
    Zr2    O85       3.34622      .   S
    N79    O86       2.52532      .   S
    Zr14   O86       3.12372      .   S
    N79    O87       2.52433      .   S
    Zr6    O87       3.12148      .   S
