# CIF file generated by openbabel 2.4.90, see http://openbabel.sf.net
data_I
_chemical_name_common ''
_cell_length_a 8.578
_cell_length_b 13.866
_cell_length_c 21.033
_cell_angle_alpha 109.128
_cell_angle_beta 92.71
_cell_angle_gamma 89.975
_space_group_name_H-M_alt 'P 1'
_space_group_name_Hall 'P 1'
loop_
    _symmetry_equiv_pos_as_xyz
    x,y,z
loop_
    _atom_site_label
    _atom_site_type_symbol
    _atom_site_fract_x
    _atom_site_fract_y
    _atom_site_fract_z
    _atom_site_occupancy
    N0      N    0.00013   0.50061   0.00002   1.000
    N1      N    0.00013   0.00065   0.99997   1.000
    N2      N    0.50017   0.00059   0.50002   1.000
    N3      N    0.50013   0.00065   0.00001   1.000
    N4      N    0.50015   0.50062   0.50001   1.000
    N5      N    0.00014   0.50061   0.49999   1.000
    N6      N    0.00015   0.00058   0.50001   1.000
    N7      N    0.50013   0.50059   0.00000   1.000
    Zr8     Zr   0.24999   0.50135   0.75009   1.000
    O9      O    0.16881   0.50149   0.82090   1.000
    O10     O    0.32683   0.48673   0.81500   1.000
    O11     O    0.17323   0.51557   0.68512   1.000
    O12     O    0.33123   0.50085   0.67924   1.000
    Zr13    Zr   0.75023   0.75119   0.74997   1.000
    O14     O    0.83140   0.68058   0.67913   1.000
    O15     O    0.82699   0.83040   0.81491   1.000
    O16     O    0.66901   0.82154   0.82082   1.000
    O17     O    0.67339   0.67172   0.68505   1.000
    Zr18    Zr   0.25007   0.00132   0.75011   1.000
    O19     O    0.33129   0.00083   0.67926   1.000
    O20     O    0.16887   0.00147   0.82090   1.000
    O21     O    0.17330   0.01554   0.68514   1.000
    O22     O    0.32689   0.98673   0.81501   1.000
    Zr23    Zr   0.25037   0.75023   0.25001   1.000
    O24     O    0.32711   0.82965   0.31495   1.000
    O25     O    0.33149   0.67986   0.17916   1.000
    O26     O    0.17350   0.67100   0.18508   1.000
    O27     O    0.16909   0.82078   0.32084   1.000
    Zr28    Zr   0.25026   0.25121   0.74999   1.000
    O29     O    0.32700   0.33040   0.81493   1.000
    O30     O    0.33142   0.18058   0.67916   1.000
    O31     O    0.16902   0.32154   0.82083   1.000
    O32     O    0.17341   0.17172   0.68507   1.000
    Zr33    Zr   0.75024   0.25121   0.74999   1.000
    O34     O    0.82699   0.33040   0.81494   1.000
    O35     O    0.66901   0.32154   0.82083   1.000
    O36     O    0.67340   0.17173   0.68507   1.000
    O37     O    0.83141   0.18059   0.67915   1.000
    Zr38    Zr   0.75006   0.00133   0.75011   1.000
    O39     O    0.83127   0.00083   0.67925   1.000
    O40     O    0.82688   0.98673   0.81500   1.000
    O41     O    0.67328   0.01555   0.68515   1.000
    O42     O    0.66886   0.00147   0.82091   1.000
    Zr43    Zr   0.75045   0.25029   0.25004   1.000
    O44     O    0.82716   0.32970   0.31496   1.000
    O45     O    0.83155   0.17992   0.17918   1.000
    O46     O    0.67354   0.17105   0.18509   1.000
    O47     O    0.66916   0.32084   0.32086   1.000
    Zr48    Zr   0.75035   0.50033   0.25005   1.000
    O49     O    0.83148   0.50008   0.17921   1.000
    O50     O    0.67348   0.51480   0.18510   1.000
    O51     O    0.82710   0.48597   0.31496   1.000
    O52     O    0.66908   0.50072   0.32087   1.000
    Zr53    Zr   0.25021   0.75119   0.74997   1.000
    O54     O    0.17336   0.67172   0.68505   1.000
    O55     O    0.16899   0.82154   0.82081   1.000
    O56     O    0.32697   0.83040   0.81492   1.000
    O57     O    0.33138   0.68058   0.67914   1.000
    Zr58    Zr   0.74999   0.50135   0.75009   1.000
    O59     O    0.82683   0.48674   0.81500   1.000
    O60     O    0.66881   0.50148   0.82090   1.000
    O61     O    0.83122   0.50085   0.67923   1.000
    O62     O    0.67324   0.51557   0.68513   1.000
    Zr63    Zr   0.75027   0.00030   0.25004   1.000
    O64     O    0.66903   0.00067   0.32086   1.000
    O65     O    0.83143   0.00008   0.17919   1.000
    O66     O    0.82704   0.98594   0.31496   1.000
    O67     O    0.67344   0.01481   0.18509   1.000
    Zr68    Zr   0.25047   0.25029   0.25004   1.000
    O69     O    0.16917   0.32083   0.32086   1.000
    O70     O    0.17356   0.17105   0.18509   1.000
    O71     O    0.33156   0.17992   0.17919   1.000
    O72     O    0.32718   0.32970   0.31496   1.000
    Zr73    Zr   0.25032   0.00030   0.25005   1.000
    O74     O    0.16906   0.00067   0.32087   1.000
    O75     O    0.32707   0.98594   0.31497   1.000
    O76     O    0.17346   0.01480   0.18509   1.000
    O77     O    0.33145   0.00009   0.17921   1.000
    Zr78    Zr   0.75033   0.75024   0.25001   1.000
    O79     O    0.66908   0.82079   0.32085   1.000
    O80     O    0.83147   0.67987   0.17917   1.000
    O81     O    0.67347   0.67100   0.18507   1.000
    O82     O    0.82708   0.82965   0.31494   1.000
    Zr83    Zr   0.25038   0.50032   0.25005   1.000
    O84     O    0.16910   0.50070   0.32086   1.000
    O85     O    0.33150   0.50007   0.17920   1.000
    O86     O    0.17350   0.51480   0.18510   1.000
    O87     O    0.32712   0.48597   0.31497   1.000
loop_
    _geom_bond_atom_site_label_1
    _geom_bond_atom_site_label_2
    _geom_bond_distance
    _geom_bond_site_symmetry_2
    _ccdc_geom_bond_type
    Zr8    O9        1.67315      .   S
    N0     O9        4.10273  1_554   S
    Zr8    O10       1.56054      .   S
    N7     O10       4.04376  1_554   S
    Zr8    O11       1.55921      .   S
    N5     O11       4.04150      .   S
    Zr8    O12       1.67266      .   S
    N4     O12       4.10114      .   S
    Zr13   O14       1.67470      .   S
    N5     O14       4.10730  1_455   S
    Zr13   O15       1.56136      .   S
    N1     O15       4.04513  1_445   S
    Zr13   O16       1.67401      .   S
    N3     O16       4.10493  1_544   S
    Zr13   O17       1.56288      .   S
    N4     O17       4.04838      .   S
    Zr18   O19       1.67269      .   S
    N2     O19       4.10103      .   S
    Zr18   O20       1.67273      .   S
    N1     O20       4.10173      .   S
    Zr18   O21       1.55928      .   S
    N6     O21       4.04175      .   S
    Zr18   O22       1.56015  1_545   S
    N3     O22       4.04316  1_544   S
    Zr23   O24       1.56247      .   S
    N2     O24       4.04779  1_545   S
    Zr23   O25       1.67374      .   S
    N7     O25       4.10428      .   S
    Zr23   O26       1.56178      .   S
    N0     O26       4.04635      .   S
    Zr23   O27       1.67483      .   S
    N6     O27       4.10759  1_545   S
    Zr28   O29       1.56125      .   S
    N7     O29       4.04511  1_554   S
    Zr28   O30       1.67473      .   S
    N2     O30       4.10735      .   S
    Zr28   O31       1.67396      .   S
    N0     O31       4.10466  1_554   S
    Zr28   O32       1.56303      .   S
    N6     O32       4.04890      .   S
    Zr33   O34       1.56137      .   S
    N0     O34       4.04535  1_454   S
    Zr33   O35       1.67385      .   S
    N7     O35       4.10441  1_554   S
    Zr33   O36       1.56294      .   S
    N2     O36       4.04865      .   S
    Zr33   O37       1.67490      .   S
    N6     O37       4.10742  1_455   S
    Zr38   O39       1.67273      .   S
    N6     O39       4.10120  1_455   S
    Zr38   O40       1.56000  1_545   S
    N1     O40       4.04263  1_445   S
    Zr38   O41       1.55918      .   S
    N2     O41       4.04147      .   S
    Zr38   O42       1.67291      .   S
    N3     O42       4.10227  1_554   S
    Zr43   O44       1.56207      .   S
    N5     O44       4.04685  1_455   S
    Zr43   O45       1.67388      .   S
    N1     O45       4.10488  1_456   S
    Zr43   O46       1.56209      .   S
    N3     O46       4.04697      .   S
    Zr43   O47       1.67476      .   S
    N4     O47       4.10744      .   S
    Zr48   O49       1.67306      .   S
    N0     O49       4.10260  1_455   S
    Zr48   O50       1.56074      .   S
    N7     O50       4.04425      .   S
    Zr48   O51       1.55889      .   S
    N5     O51       4.04058  1_455   S
    Zr48   O52       1.67256      .   S
    N4     O52       4.10079      .   S
    Zr53   O54       1.56293      .   S
    N5     O54       4.04859      .   S
    Zr53   O55       1.67382      .   S
    N1     O55       4.10435  1_545   S
    Zr53   O56       1.56154      .   S
    N3     O56       4.04567  1_544   S
    Zr53   O57       1.67468      .   S
    N4     O57       4.10720      .   S
    Zr58   O59       1.56060      .   S
    N0     O59       4.04391  1_454   S
    Zr58   O60       1.67310      .   S
    N7     O60       4.10259  1_554   S
    Zr58   O61       1.67273      .   S
    N5     O61       4.10130  1_455   S
    Zr58   O62       1.55913      .   S
    N4     O62       4.04126      .   S
    Zr63   O64       1.67248      .   S
    N2     O64       4.10098      .   S
    Zr63   O65       1.67347      .   S
    N1     O65       4.10358  1_456   S
    Zr63   O66       1.55908  1_545   S
    N6     O66       4.04109  1_445   S
    Zr63   O67       1.56070      .   S
    N3     O67       4.04427      .   S
    Zr68   O69       1.67476      .   S
    N5     O69       4.10726      .   S
    Zr68   O70       1.56224      .   S
    N1     O70       4.04752  1_556   S
    Zr68   O71       1.67367      .   S
    N3     O71       4.10437      .   S
    Zr68   O72       1.56217      .   S
    N4     O72       4.04703      .   S
    Zr73   O74       1.67256      .   S
    N6     O74       4.10067      .   S
    Zr73   O75       1.55904  1_545   S
    N2     O75       4.04113  1_545   S
    Zr73   O76       1.56097      .   S
    N1     O76       4.04506  1_556   S
    Zr73   O77       1.67332      .   S
    N3     O77       4.10304      .   S
    Zr78   O79       1.67483      .   S
    N2     O79       4.10762  1_545   S
    Zr78   O80       1.67370      .   S
    N0     O80       4.10417  1_455   S
    Zr78   O81       1.56186      .   S
    N7     O81       4.04651      .   S
    Zr78   O82       1.56242      .   S
    N6     O82       4.04761  1_445   S
    Zr83   O84       1.67253      .   S
    N5     O84       4.10064      .   S
    Zr83   O85       1.67311      .   S
    N7     O85       4.10269      .   S
    Zr83   O86       1.56071      .   S
    N0     O86       4.04419      .   S
    Zr83   O87       1.55895      .   S
    N4     O87       4.04070      .   S
