# CIF file generated by openbabel 2.4.90, see http://openbabel.sf.net
data_I
_chemical_name_common ''
_cell_length_a 20.752
_cell_length_b 20.667
_cell_length_c 14.043
_cell_angle_alpha 89.845
_cell_angle_beta 89.931
_cell_angle_gamma 89.747
_space_group_name_H-M_alt 'P 1'
_space_group_name_Hall 'P 1'
loop_
    _symmetry_equiv_pos_as_xyz
    x,y,z
loop_
    _atom_site_label
    _atom_site_type_symbol
    _atom_site_fract_x
    _atom_site_fract_y
    _atom_site_fract_z
    _atom_site_occupancy
    H0      H    0.26501   0.03529   0.39583   1.000
    H1      H    0.26501   0.53528   0.39583   1.000
    H2      H    0.76501   0.03529   0.39583   1.000
    H3      H    0.76501   0.53528   0.39583   1.000
    H4      H    0.23478   0.46573   0.89530   1.000
    H5      H    0.23478   0.96572   0.89530   1.000
    H6      H    0.73477   0.46573   0.89530   1.000
    H7      H    0.73477   0.96572   0.89530   1.000
    H8      H    0.46161   0.26393   0.64453   1.000
    H9      H    0.46161   0.76392   0.64453   1.000
    H10     H    0.96161   0.26393   0.64453   1.000
    H11     H    0.96160   0.76392   0.64453   1.000
    H12     H    0.03714   0.23593   0.14336   1.000
    H13     H    0.03714   0.73592   0.14336   1.000
    H14     H    0.53714   0.23593   0.14336   1.000
    H15     H    0.53714   0.73592   0.14336   1.000
    H16     H    0.23477   0.03837   0.60716   1.000
    H17     H    0.23477   0.53836   0.60716   1.000
    H18     H    0.73477   0.03837   0.60716   1.000
    H19     H    0.73476   0.53836   0.60716   1.000
    H20     H    0.26585   0.46510   0.10690   1.000
    H21     H    0.26585   0.96509   0.10690   1.000
    H22     H    0.76584   0.46510   0.10690   1.000
    H23     H    0.76584   0.96509   0.10690   1.000
    H24     H    0.03518   0.26498   0.35737   1.000
    H25     H    0.03518   0.76497   0.35737   1.000
    H26     H    0.53518   0.26498   0.35737   1.000
    H27     H    0.53517   0.76497   0.35737   1.000
    H28     H    0.46473   0.23744   0.85576   1.000
    H29     H    0.46473   0.73743   0.85576   1.000
    H30     H    0.96472   0.23744   0.85576   1.000
    H31     H    0.96472   0.73743   0.85576   1.000
    H32     H    0.44477   0.00042   0.25161   1.000
    H33     H    0.44477   0.50041   0.25161   1.000
    H34     H    0.94476   0.00042   0.25161   1.000
    H35     H    0.94476   0.50041   0.25161   1.000
    H36     H    0.05544   0.00019   0.75010   1.000
    H37     H    0.05544   0.50018   0.75010   1.000
    H38     H    0.55543   0.00019   0.75016   1.000
    H39     H    0.55543   0.50018   0.75010   1.000
    H40     H    0.00070   0.44473   0.50317   1.000
    H41     H    0.00070   0.94473   0.50317   1.000
    H42     H    0.50070   0.44473   0.50317   1.000
    H43     H    0.50069   0.94473   0.50317   1.000
    H44     H    0.00146   0.05642   0.99850   1.000
    H45     H    0.00000   0.55641   0.99852   1.000
    H46     H    0.50145   0.05642   0.99851   1.000
    H47     H    0.50145   0.55641   0.99851   1.000
    C48     C    0.29176   0.02000   0.33296   1.000
    C49     C    0.29176   0.51999   0.33296   1.000
    C50     C    0.79175   0.02000   0.33296   1.000
    C51     C    0.79175   0.51999   0.33296   1.000
    C52     C    0.35923   0.01954   0.33320   1.000
    C53     C    0.35923   0.51953   0.33320   1.000
    C54     C    0.85922   0.01954   0.33328   1.000
    C55     C    0.85922   0.51953   0.33320   1.000
    C56     C    0.39738   0.03749   0.41899   1.000
    C57     C    0.39737   0.53748   0.41899   1.000
    C58     C    0.89737   0.03749   0.41899   1.000
    C59     C    0.89737   0.53748   0.41899   1.000
    C60     C    0.20825   0.48136   0.83239   1.000
    C61     C    0.20825   0.98135   0.83200   1.000
    C62     C    0.70824   0.48136   0.83239   1.000
    C63     C    0.70824   0.98135   0.83200   1.000
    C64     C    0.14080   0.48139   0.83234   1.000
    C65     C    0.14080   0.98138   0.83234   1.000
    C66     C    0.64080   0.48139   0.83234   1.000
    C67     C    0.64079   0.98138   0.83234   1.000
    C68     C    0.10285   0.46277   0.91810   1.000
    C69     C    0.10285   0.96276   0.91810   1.000
    C70     C    0.60285   0.46277   0.91816   1.000
    C71     C    0.60285   0.96276   0.91810   1.000
    C72     C    0.47788   0.29071   0.58214   1.000
    C73     C    0.47788   0.79070   0.58214   1.000
    C74     C    0.97788   0.29071   0.58214   1.000
    C75     C    0.97787   0.79070   0.58214   1.000
    C76     C    0.47945   0.35849   0.58344   1.000
    C77     C    0.47944   0.85848   0.58344   1.000
    C78     C    0.97944   0.35849   0.58344   1.000
    C79     C    0.97944   0.85848   0.58344   1.000
    C80     C    0.46152   0.39499   0.67092   1.000
    C81     C    0.46151   0.89499   0.67092   1.000
    C82     C    0.96151   0.39499   0.67092   1.000
    C83     C    0.96151   0.89498   0.67092   1.000
    C84     C    0.50092   0.74381   0.99960   1.000
    C85     C    0.00076   0.31629   0.00021   1.000
    C86     C    0.00076   0.81628   0.00021   1.000
    C87     C    0.50075   0.31629   0.00021   1.000
    C88     C    0.02137   0.20971   0.08045   1.000
    C89     C    0.02137   0.70971   0.08045   1.000
    C90     C    0.52136   0.20971   0.08045   1.000
    C91     C    0.52136   0.70971   0.08045   1.000
    C92     C    0.02077   0.14196   0.08051   1.000
    C93     C    0.02076   0.64196   0.08051   1.000
    C94     C    0.52076   0.14196   0.08051   1.000
    C95     C    0.52076   0.64196   0.08051   1.000
    C96     C    0.03905   0.10426   0.16696   1.000
    C97     C    0.03904   0.60425   0.16690   1.000
    C98     C    0.53904   0.10426   0.16696   1.000
    C99     C    0.53904   0.60426   0.16696   1.000
    C100    C    0.20827   0.02230   0.66983   1.000
    C101    C    0.20827   0.52229   0.66983   1.000
    C102    C    0.70826   0.02230   0.66983   1.000
    C103    C    0.70826   0.52229   0.66983   1.000
    C104    C    0.14080   0.02097   0.66918   1.000
    C105    C    0.14080   0.52096   0.66918   1.000
    C106    C    0.64080   0.02097   0.66918   1.000
    C107    C    0.64079   0.52096   0.66918   1.000
    C108    C    0.10286   0.03890   0.58303   1.000
    C109    C    0.10286   0.53889   0.58303   1.000
    C110    C    0.60286   0.03890   0.58303   1.000
    C111    C    0.60286   0.53889   0.58303   1.000
    C112    C    0.29221   0.48048   0.16986   1.000
    C113    C    0.29221   0.98047   0.16986   1.000
    C114    C    0.79221   0.48048   0.16986   1.000
    C115    C    0.79221   0.98047   0.16986   1.000
    O116    O    0.13094   0.04400   0.50291   1.000
    O117    O    0.13094   0.54399   0.50291   1.000
    O118    O    0.63094   0.04400   0.50291   1.000
    O119    O    0.63093   0.54400   0.50291   1.000
    O120    O    0.34195   0.04426   0.69975   1.000
    C121    C    0.35968   0.48123   0.16972   1.000
    C122    C    0.35968   0.98122   0.16972   1.000
    C123    C    0.85968   0.48123   0.16972   1.000
    C124    C    0.85968   0.98122   0.16972   1.000
    C125    C    0.39851   0.46344   0.08427   1.000
    C126    C    0.39851   0.96343   0.08427   1.000
    C127    C    0.89850   0.46344   0.08427   1.000
    C128    C    0.89850   0.96343   0.08427   1.000
    C129    C    0.01930   0.29130   0.42031   1.000
    C130    C    0.01930   0.79130   0.42031   1.000
    C131    C    0.51929   0.29130   0.42031   1.000
    C132    C    0.51929   0.79130   0.42031   1.000
    C133    C    0.01930   0.35905   0.42060   1.000
    C134    C    0.01930   0.85905   0.42060   1.000
    C135    C    0.51930   0.35905   0.42060   1.000
    C136    C    0.51930   0.85905   0.42060   1.000
    C137    C    0.03850   0.39632   0.33419   1.000
    C138    C    0.03850   0.89631   0.33419   1.000
    C139    C    0.53850   0.39632   0.33419   1.000
    C140    C    0.53849   0.89631   0.33419   1.000
    C141    C    0.48063   0.21055   0.91833   1.000
    C142    C    0.48063   0.71054   0.91833   1.000
    C143    C    0.98062   0.21055   0.91833   1.000
    C144    C    0.98062   0.71054   0.91833   1.000
    C145    C    0.48159   0.14276   0.91750   1.000
    C146    C    0.48159   0.64275   0.91750   1.000
    C147    C    0.98158   0.14276   0.91750   1.000
    C148    C    0.98157   0.64275   0.91750   1.000
    C149    C    0.46335   0.10596   0.83067   1.000
    C150    C    0.46335   0.60595   0.83067   1.000
    C151    C    0.96335   0.10596   0.83067   1.000
    C152    C    0.96334   0.60595   0.83067   1.000
    C153    C    0.25847   0.00014   0.25140   1.000
    C154    C    0.25847   0.50013   0.25140   1.000
    C155    C    0.75846   0.00014   0.25140   1.000
    C156    C    0.75846   0.50013   0.25140   1.000
    C157    C    0.18629   0.00002   0.25155   1.000
    C158    C    0.18629   0.50001   0.25155   1.000
    C159    C    0.68628   0.00002   0.25155   1.000
    C160    C    0.68628   0.50001   0.25155   1.000
    C161    C    0.39248   0.00041   0.25156   1.000
    C162    C    0.39248   0.50040   0.25156   1.000
    C163    C    0.89248   0.00041   0.25156   1.000
    C164    C    0.89248   0.50040   0.25156   1.000
    C165    C    0.24176   0.00210   0.75128   1.000
    C166    C    0.24175   0.50209   0.75128   1.000
    C167    C    0.74175   0.00210   0.75128   1.000
    C168    C    0.74175   0.50209   0.75128   1.000
    C169    C    0.31386   0.00236   0.75170   1.000
    C170    C    0.31386   0.50236   0.75174   1.000
    C171    C    0.81386   0.00236   0.75174   1.000
    C172    C    0.81385   0.50236   0.75170   1.000
    C173    C    0.10772   0.00080   0.75054   1.000
    C174    C    0.10772   0.50080   0.75050   1.000
    C175    C    0.60771   0.00080   0.75054   1.000
    C176    C    0.60771   0.50080   0.75054   1.000
    C177    C    0.99830   0.25732   0.50085   1.000
    C178    C    0.99830   0.75731   0.50080   1.000
    C179    C    0.49829   0.25732   0.50086   1.000
    C180    C    0.49829   0.75732   0.50085   1.000
    C181    C    0.99840   0.18487   0.50012   1.000
    C182    C    0.99840   0.68486   0.50012   1.000
    C183    C    0.49840   0.18487   0.50012   1.000
    C184    C    0.49839   0.68486   0.50012   1.000
    C185    C    0.99982   0.39219   0.50247   1.000
    C186    C    0.99982   0.89219   0.50240   1.000
    C187    C    0.49981   0.39219   0.50247   1.000
    C188    C    0.49981   0.89219   0.50247   1.000
    C189    C    0.00093   0.24382   0.99960   1.000
    C190    C    0.00092   0.74381   0.99960   1.000
    C191    C    0.50092   0.24382   0.99960   1.000
    C192    C    0.50075   0.81628   0.00021   1.000
    C193    C    0.00125   0.10897   0.99880   1.000
    C194    C    0.00125   0.60896   0.99881   1.000
    C195    C    0.50125   0.10897   0.99881   1.000
    C196    C    0.50125   0.60896   0.99881   1.000
    O197    O    0.36993   0.04101   0.49900   1.000
    O198    O    0.36993   0.54100   0.49900   1.000
    O199    O    0.86993   0.04101   0.49900   1.000
    O200    O    0.86993   0.54100   0.49900   1.000
    O201    O    0.15807   0.04182   0.30360   1.000
    O202    O    0.15807   0.54181   0.30360   1.000
    O203    O    0.65806   0.04182   0.30360   1.000
    O204    O    0.65806   0.54181   0.30360   1.000
    O205    O    0.45788   0.04716   0.40861   1.000
    O206    O    0.45788   0.54715   0.40861   1.000
    O207    O    0.95787   0.04716   0.40861   1.000
    O208    O    0.95787   0.54715   0.40861   1.000
    O209    O    0.13059   0.45850   0.99863   1.000
    O210    O    0.13059   0.95850   0.99863   1.000
    O211    O    0.63058   0.45850   0.99863   1.000
    O212    O    0.63058   0.95849   0.99863   1.000
    O213    O    0.34197   0.46056   0.80410   1.000
    O214    O    0.34197   0.96056   0.80413   1.000
    O215    O    0.84196   0.46056   0.80410   1.000
    O216    O    0.84196   0.96056   0.80410   1.000
    O217    O    0.04225   0.45338   0.90847   1.000
    O218    O    0.04225   0.95337   0.90847   1.000
    O219    O    0.54225   0.45338   0.90847   1.000
    O220    O    0.54225   0.95337   0.90847   1.000
    O221    O    0.45530   0.36509   0.74960   1.000
    O222    O    0.45530   0.86508   0.74960   1.000
    O223    O    0.95529   0.36509   0.74960   1.000
    O224    O    0.95529   0.86508   0.74960   1.000
    O225    O    0.45602   0.15630   0.55036   1.000
    O226    O    0.45602   0.65629   0.55036   1.000
    O227    O    0.95602   0.15630   0.55036   1.000
    O228    O    0.95602   0.65629   0.55036   1.000
    O229    O    0.45448   0.45671   0.66617   1.000
    O230    O    0.45448   0.95670   0.66617   1.000
    O231    O    0.95447   0.45671   0.66617   1.000
    O232    O    0.95447   0.95670   0.66617   1.000
    O233    O    0.04425   0.13290   0.24665   1.000
    O234    O    0.04425   0.63289   0.24665   1.000
    O235    O    0.54424   0.13290   0.24665   1.000
    O236    O    0.54424   0.63289   0.24665   1.000
    O237    O    0.04324   0.34394   0.05100   1.000
    O238    O    0.04324   0.84393   0.05109   1.000
    O239    O    0.54323   0.34394   0.05109   1.000
    O240    O    0.54324   0.84393   0.05109   1.000
    O241    O    0.04734   0.04305   0.15921   1.000
    O242    O    0.04734   0.54304   0.15921   1.000
    O243    O    0.54734   0.04305   0.15921   1.000
    O244    O    0.54734   0.54304   0.15921   1.000
    O245    O    0.34195   0.54425   0.69975   1.000
    O246    O    0.84194   0.04426   0.69975   1.000
    O247    O    0.84194   0.54425   0.69975   1.000
    O248    O    0.04187   0.04687   0.59175   1.000
    O249    O    0.04187   0.54686   0.59175   1.000
    O250    O    0.54186   0.04687   0.59175   1.000
    O251    O    0.54186   0.54686   0.59175   1.000
    O252    O    0.37184   0.46096   0.00287   1.000
    O253    O    0.37184   0.96095   0.00287   1.000
    O254    O    0.87183   0.46096   0.00287   1.000
    O255    O    0.87183   0.96095   0.00287   1.000
    O256    O    0.15839   0.45816   0.19973   1.000
    O257    O    0.15839   0.95815   0.19973   1.000
    O258    O    0.65838   0.45816   0.19973   1.000
    O259    O    0.65838   0.95815   0.19973   1.000
    O260    O    0.45877   0.45282   0.09566   1.000
    O261    O    0.45877   0.95282   0.09566   1.000
    O262    O    0.95876   0.45282   0.09566   1.000
    O263    O    0.95876   0.95282   0.09566   1.000
    O264    O    0.04424   0.36731   0.25482   1.000
    O265    O    0.04424   0.86731   0.25482   1.000
    O266    O    0.54423   0.36731   0.25482   1.000
    O267    O    0.54423   0.86731   0.25482   1.000
    O268    O    0.04120   0.15727   0.44919   1.000
    O269    O    0.04120   0.65726   0.44919   1.000
    O270    O    0.54120   0.15727   0.44919   1.000
    O271    O    0.54119   0.65726   0.44919   1.000
    O272    O    0.04709   0.45749   0.34150   1.000
    O273    O    0.04709   0.95748   0.34150   1.000
    O274    O    0.54708   0.45749   0.34150   1.000
    O275    O    0.54708   0.95748   0.34150   1.000
    O276    O    0.45792   0.13526   0.75130   1.000
    O277    O    0.45791   0.63526   0.75130   1.000
    O278    O    0.95791   0.13526   0.75130   1.000
    O279    O    0.95791   0.63526   0.75130   1.000
    O280    O    0.45818   0.34473   0.94993   1.000
    O281    O    0.45818   0.84472   0.94993   1.000
    O282    O    0.95817   0.34473   0.94993   1.000
    O283    O    0.95817   0.84472   0.94993   1.000
    O284    O    0.45519   0.04459   0.83720   1.000
    O285    O    0.45519   0.54458   0.83720   1.000
    O286    O    0.95518   0.04459   0.83720   1.000
    O287    O    0.95518   0.54458   0.83720   1.000
loop_
    _geom_bond_atom_site_label_1
    _geom_bond_atom_site_label_2
    _geom_bond_distance
    _geom_bond_site_symmetry_2
    _ccdc_geom_bond_type
    C85    O237      1.27309      .   S
    C85    O282      1.27271  1_454   S
    C85    C189      1.49775  1_554   S
    C86    O238      1.27384      .   S
    C86    O283      1.27269  1_454   S
    C86    C190      1.49777  1_554   S
    C87    O239      1.27382      .   S
    C87    O280      1.27252  1_554   S
    C87    C191      1.49775  1_554   S
    C192   O240      1.27381      .   S
    C192   O281      1.27252  1_554   S
    C192   C84       1.49775  1_554   S
    O255   C128      1.27189      .   S
    O254   C127      1.27188      .   S
    O253   C126      1.27189      .   S
    O252   C125      1.27189      .   S
    C88    C92       1.40030      .   S
    C88    H12       1.08904      .   S
    C88    C189      1.39997  1_554   S
    C91    C95       1.40030      .   S
    C91    H15       1.08904      .   S
    C91    C84       1.39998  1_554   S
    C90    C94       1.40030      .   S
    C90    H14       1.08905      .   S
    C90    C191      1.39998  1_554   S
    C89    C93       1.40030      .   S
    C89    H13       1.08904      .   S
    C89    C190      1.40000  1_554   S
    C95    C99       1.48936      .   S
    C95    C196      1.39755  1_554   S
    C94    C98       1.48936      .   S
    C94    C195      1.39755  1_554   S
    C93    C97       1.48869      .   S
    C93    C194      1.39753  1_554   S
    C92    C96       1.48937      .   S
    C92    C193      1.39767  1_554   S
    C127   O262      1.27878      .   S
    C127   C123      1.49051      .   S
    C125   O260      1.27878      .   S
    C125   C121      1.49051      .   S
    C126   O261      1.27878      .   S
    C126   C122      1.49051      .   S
    C128   O263      1.27876      .   S
    C128   C124      1.49052      .   S
    H22    C114      1.08920      .   S
    H23    C115      1.08920      .   S
    H21    C113      1.08919      .   S
    H20    C112      1.08919      .   S
    O244   C99       1.28096      .   S
    O243   C98       1.28096      .   S
    O242   C97       1.28088      .   S
    O241   C96       1.28096      .   S
    C97    O234      1.27305      .   S
    C96    O233      1.27229      .   S
    C98    O235      1.27229      .   S
    C99    O236      1.27229      .   S
    C121   C112      1.40031      .   S
    C121   C162      1.39569      .   S
    C122   C113      1.40031      .   S
    C122   C161      1.39578  1_565   S
    C123   C114      1.40031      .   S
    C123   C164      1.39569      .   S
    C124   C115      1.40029      .   S
    C124   C163      1.39579  1_565   S
    C112   C154      1.40161      .   S
    C115   C155      1.40171  1_565   S
    C114   C156      1.40161      .   S
    C113   C153      1.40171  1_565   S
    O259   C159      1.27370  1_565   S
    O258   C160      1.27348      .   S
    O257   C157      1.27370  1_565   S
    O256   C158      1.27346      .   S
    C154   C158      1.49795      .   S
    C154   C49       1.40156      .   S
    C153   C157      1.49795      .   S
    C153   C48       1.40156      .   S
    C155   C159      1.49795      .   S
    C155   C50       1.40155      .   S
    C156   C160      1.49795      .   S
    C156   C51       1.40156      .   S
    C157   O201      1.27338      .   S
    C158   O202      1.27338      .   S
    C159   O203      1.27338      .   S
    C160   O204      1.27338      .   S
    C164   H35       1.08508      .   S
    C164   C55       1.39462      .   S
    C163   H34       1.08508      .   S
    C163   C54       1.39556      .   S
    C161   H32       1.08508      .   S
    C161   C52       1.39463      .   S
    C162   H33       1.08508      .   S
    C162   C53       1.39461      .   S
    O267   C140      1.27220      .   S
    O266   C139      1.27219      .   S
    O265   C138      1.27219      .   S
    O264   C137      1.27220      .   S
    C50    C54       1.40018      .   S
    C50    H2        1.08913      .   S
    C51    C55       1.40018      .   S
    C51    H3        1.08912      .   S
    C49    C53       1.40018      .   S
    C49    H1        1.08912      .   S
    C48    C52       1.40018      .   S
    C48    H0        1.08913      .   S
    C52    C56       1.49096      .   S
    C53    C57       1.49097      .   S
    C55    C59       1.49096      .   S
    C54    C58       1.49005      .   S
    C137   O272      1.28191      .   S
    C137   C133      1.49025      .   S
    C138   O273      1.28191      .   S
    C138   C134      1.49023      .   S
    C139   O274      1.28191      .   S
    C139   C135      1.49024      .   S
    C140   O275      1.28191      .   S
    C140   C136      1.49025      .   S
    H25    C130      1.08911      .   S
    H24    C129      1.08910      .   S
    H26    C131      1.08911      .   S
    H27    C132      1.08910      .   S
    O208   C59       1.28036      .   S
    O207   C58       1.28036      .   S
    O206   C57       1.28036      .   S
    O205   C56       1.28036      .   S
    C58    O199      1.26117      .   S
    C57    O198      1.26118      .   S
    C56    O197      1.26118      .   S
    C59    O200      1.26118      .   S
    C132   C136      1.40019      .   S
    C132   C180      1.39985      .   S
    C131   C135      1.40019      .   S
    C131   C179      1.39996      .   S
    C130   C134      1.40021      .   S
    C130   C178      1.39927  1_455   S
    C129   C133      1.40021      .   S
    C129   C177      1.39985  1_455   S
    C133   C185      1.39824  1_455   S
    C134   C186      1.39744  1_455   S
    C135   C187      1.39824      .   S
    C136   C188      1.39824      .   S
    O268   C181      1.27352  1_455   S
    O269   C182      1.27352  1_455   S
    O270   C183      1.27351      .   S
    O271   C184      1.27353      .   S
    C181   C177      1.49748      .   S
    C181   O227      1.27313      .   S
    C184   C180      1.49750      .   S
    C184   O226      1.27293      .   S
    C182   C178      1.49748      .   S
    C182   O228      1.27316      .   S
    C183   C179      1.49750      .   S
    C183   O225      1.27295      .   S
    C178   C75       1.40033      .   S
    C180   C73       1.39965      .   S
    C177   C74       1.39975      .   S
    C179   C72       1.39955      .   S
    C186   H41       1.08616  1_655   S
    C186   C79       1.39869      .   S
    C188   H43       1.08615      .   S
    C188   C77       1.39780      .   S
    C185   H40       1.08615  1_655   S
    C185   C78       1.39789      .   S
    C187   H42       1.08615      .   S
    C187   C76       1.39779      .   S
    O118   C110      1.27078      .   S
    O117   C109      1.27078      .   S
    O116   C108      1.27078      .   S
    O119   C111      1.27078      .   S
    C75    C79       1.40156      .   S
    C75    H11       1.08913      .   S
    C74    C78       1.40156      .   S
    C74    H10       1.08914      .   S
    C73    C77       1.40158      .   S
    C73    H9        1.08914      .   S
    C72    C76       1.40156      .   S
    C72    H8        1.08913      .   S
    C108   O248      1.28152      .   S
    C108   C104      1.48934      .   S
    C109   O249      1.28152      .   S
    C109   C105      1.48933      .   S
    C110   O250      1.28154      .   S
    C110   C106      1.48933      .   S
    C111   O251      1.28154      .   S
    C111   C107      1.48933      .   S
    C76    C80       1.48934      .   S
    C77    C81       1.48933      .   S
    C78    C82       1.48935      .   S
    C79    C83       1.48934      .   S
    H19    C103      1.08918      .   S
    H18    C102      1.08918      .   S
    H17    C101      1.08919      .   S
    H16    C100      1.08918      .   S
    O232   C83       1.28479      .   S
    O231   C82       1.28479      .   S
    O230   C81       1.28479      .   S
    O229   C80       1.28479      .   S
    C104   C100      1.40047      .   S
    C104   C173      1.39589      .   S
    C105   C101      1.40046      .   S
    C105   C174      1.39545      .   S
    C106   C102      1.40046      .   S
    C106   C175      1.39591      .   S
    C107   C103      1.40044      .   S
    C107   C176      1.39591      .   S
    C100   C165      1.40083      .   S
    C102   C167      1.40082      .   S
    C103   C168      1.40084      .   S
    C101   C166      1.40082      .   S
    C83    O224      1.27126      .   S
    C82    O223      1.27126      .   S
    C81    O222      1.27125      .   S
    C80    O221      1.27125      .   S
    O120   C169      1.27338      .   S
    O245   C170      1.27368      .   S
    O246   C171      1.27368      .   S
    O247   C172      1.27337      .   S
    H36    C173      1.08505      .   S
    H39    C176      1.08505      .   S
    H37    C174      1.08505      .   S
    H38    C175      1.08504      .   S
    C174   C64       1.39648      .   S
    C176   C66       1.39602      .   S
    C175   C67       1.39608  1_545   S
    C173   C65       1.39610  1_545   S
    C168   C172      1.49642      .   S
    C168   C62       1.40087      .   S
    C167   C171      1.49642      .   S
    C167   C63       1.39653  1_545   S
    C166   C170      1.49644      .   S
    C166   C60       1.40087      .   S
    C165   C169      1.49644      .   S
    C165   C61       1.39652  1_545   S
    O276   C149      1.27199      .   S
    O279   C152      1.27198      .   S
    O277   C150      1.27199      .   S
    O278   C151      1.27199      .   S
    C169   O214      1.27360  1_545   S
    C172   O215      1.27318      .   S
    C170   O213      1.27286      .   S
    C171   O216      1.27305  1_545   S
    C151   O286      1.28330      .   S
    C151   C147      1.48901      .   S
    C149   O284      1.28328      .   S
    C149   C145      1.48902      .   S
    C150   O285      1.28330      .   S
    C150   C146      1.48902      .   S
    C152   O287      1.28329      .   S
    C152   C148      1.48900      .   S
    C63    C67       1.39970      .   S
    C63    H7        1.09349      .   S
    C61    C65       1.39970      .   S
    C61    H5        1.09348      .   S
    C65    C69       1.48880      .   S
    C66    C62       1.39970      .   S
    C66    C70       1.48947      .   S
    C64    C60       1.39970      .   S
    C64    C68       1.48879      .   S
    C67    C71       1.48880      .   S
    C62    H6        1.08904      .   S
    C60    H4        1.08904      .   S
    H28    C141      1.08921      .   S
    H29    C142      1.08921      .   S
    H30    C143      1.08922      .   S
    H31    C144      1.08922      .   S
    O219   C70       1.28078      .   S
    O220   C71       1.28069      .   S
    O218   C69       1.28069      .   S
    O217   C68       1.28069      .   S
    C148   C144      1.40109      .   S
    C148   C194      1.39737  1_655   S
    C147   C143      1.40109      .   S
    C147   C193      1.39723  1_655   S
    C146   C142      1.40109      .   S
    C146   C196      1.39726      .   S
    C145   C141      1.40111      .   S
    C145   C195      1.39725      .   S
    C71    O212      1.27222      .   S
    C68    O209      1.27222      .   S
    C69    O210      1.27222      .   S
    C70    O211      1.27147      .   S
    C141   C191      1.40020      .   S
    C142   C84       1.40021      .   S
    C143   C189      1.40030  1_655   S
    C144   C190      1.40027  1_655   S
    H44    C193      1.08604      .   S
    H47    C196      1.08604      .   S
    H46    C195      1.08604      .   S
    H45    C194      1.08647      .   S
