# CIF file generated by openbabel 2.4.90, see http://openbabel.sf.net
data_I
_chemical_name_common ''
_cell_length_a 20.752
_cell_length_b 20.667
_cell_length_c 14.043
_cell_angle_alpha 89.845
_cell_angle_beta 89.931
_cell_angle_gamma 89.747
_space_group_name_H-M_alt 'P 1'
_space_group_name_Hall 'P 1'
loop_
    _symmetry_equiv_pos_as_xyz
    x,y,z
loop_
    _atom_site_label
    _atom_site_type_symbol
    _atom_site_fract_x
    _atom_site_fract_y
    _atom_site_fract_z
    _atom_site_occupancy
    Zr0     Zr   0.43776   0.06227   0.62802   1.000
    Zr1     Zr   0.43775   0.56226   0.62802   1.000
    Zr2     Zr   0.93775   0.06227   0.62802   1.000
    Zr3     Zr   0.93775   0.56226   0.62802   1.000
    Zr4     Zr   0.06324   0.43769   0.12761   1.000
    Zr5     Zr   0.06324   0.93768   0.12761   1.000
    Zr6     Zr   0.56323   0.43769   0.12761   1.000
    Zr7     Zr   0.56323   0.93768   0.12761   1.000
    Zr8     Zr   0.43814   0.43919   0.87314   1.000
    Zr9     Zr   0.43814   0.93919   0.87314   1.000
    Zr10    Zr   0.93813   0.43919   0.87314   1.000
    Zr11    Zr   0.93813   0.93919   0.87314   1.000
    Zr12    Zr   0.06230   0.06280   0.37457   1.000
    Zr13    Zr   0.06230   0.56279   0.37457   1.000
    Zr14    Zr   0.56229   0.06280   0.37457   1.000
    Zr15    Zr   0.56229   0.56279   0.37457   1.000
    N16     N    0.67342   0.00138   0.75090   1.000
    O17     O    0.58161   0.02797   0.68039   1.000
    O18     O    0.78163   0.02732   0.70739   1.000
    O19     O    0.78174   0.97562   0.79476   1.000
    O20     O    0.58181   0.97383   0.82085   1.000
    O21     O    0.63502   0.02739   0.59482   1.000
    O22     O    0.63516   0.97473   0.90701   1.000
    N23     N    0.49935   0.32550   0.50176   1.000
    O24     O    0.52654   0.36400   0.34649   1.000
    O25     O    0.52555   0.21777   0.45682   1.000
    O26     O    0.47312   0.21740   0.54548   1.000
    O27     O    0.52702   0.41782   0.42990   1.000
    O28     O    0.47273   0.41750   0.57443   1.000
    N29     N    0.50106   0.67547   0.99922   1.000
    O30     O    0.52715   0.78314   0.04429   1.000
    O31     O    0.52817   0.58291   0.07132   1.000
    O32     O    0.52716   0.63665   0.15492   1.000
    O33     O    0.47386   0.58368   0.92720   1.000
    O34     O    0.47461   0.78371   0.95538   1.000
    N35     N    0.99935   0.82550   0.50176   1.000
    O36     O    0.97273   0.91749   0.57443   1.000
    O37     O    0.97311   0.71739   0.54547   1.000
    O38     O    0.02555   0.71776   0.45682   1.000
    O39     O    0.02654   0.86399   0.34649   1.000
    O40     O    0.02702   0.91782   0.42990   1.000
    N41     N    0.00098   0.67547   0.99922   1.000
    O42     O    0.97456   0.78371   0.95538   1.000
    O43     O    0.97382   0.58368   0.92720   1.000
    O44     O    0.02713   0.63665   0.15492   1.000
    O45     O    0.02711   0.78314   0.04429   1.000
    O46     O    0.02813   0.58291   0.07132   1.000
    N47     N    0.32703   0.00030   0.25152   1.000
    O48     O    0.36544   0.02597   0.40751   1.000
    O49     O    0.36601   0.97518   0.09476   1.000
    O50     O    0.41901   0.97277   0.18158   1.000
    O51     O    0.21892   0.97411   0.20759   1.000
    O52     O    0.41856   0.02764   0.32155   1.000
    O53     O    0.21861   0.02630   0.29530   1.000
    N54     N    0.99935   0.32550   0.50176   1.000
    O55     O    0.02654   0.36400   0.34649   1.000
    O56     O    0.97273   0.41750   0.57443   1.000
    O57     O    0.97311   0.21739   0.54548   1.000
    O58     O    0.02555   0.21777   0.45682   1.000
    O59     O    0.02702   0.41782   0.42990   1.000
    N60     N    0.82702   0.50030   0.25152   1.000
    O61     O    0.71891   0.47411   0.20759   1.000
    O62     O    0.91901   0.47278   0.18158   1.000
    O63     O    0.91855   0.52763   0.32155   1.000
    O64     O    0.86600   0.47519   0.09476   1.000
    O65     O    0.86543   0.52596   0.40751   1.000
    O66     O    0.71860   0.52630   0.29530   1.000
    N67     N    0.67342   0.50137   0.75092   1.000
    O68     O    0.63502   0.52738   0.59483   1.000
    O69     O    0.78163   0.52732   0.70740   1.000
    O70     O    0.58181   0.47383   0.82086   1.000
    O71     O    0.63516   0.47473   0.90702   1.000
    O72     O    0.58161   0.52797   0.68040   1.000
    O73     O    0.78174   0.47563   0.79477   1.000
    N74     N    0.32703   0.50030   0.25152   1.000
    O75     O    0.36544   0.52596   0.40751   1.000
    O76     O    0.36601   0.47519   0.09476   1.000
    O77     O    0.41901   0.47278   0.18158   1.000
    O78     O    0.21861   0.52630   0.29530   1.000
    O79     O    0.41856   0.52763   0.32155   1.000
    O80     O    0.21892   0.47411   0.20759   1.000
    N81     N    0.50106   0.17547   0.99922   1.000
    O82     O    0.47386   0.08368   0.92720   1.000
    O83     O    0.52817   0.08292   0.07132   1.000
    O84     O    0.52715   0.28314   0.04429   1.000
    O85     O    0.52716   0.13666   0.15492   1.000
    O86     O    0.47461   0.28372   0.95538   1.000
    N87     N    0.17343   0.50137   0.75092   1.000
    O88     O    0.08162   0.52797   0.68040   1.000
    O89     O    0.28174   0.47563   0.79477   1.000
    O90     O    0.13517   0.47473   0.90702   1.000
    O91     O    0.28164   0.52731   0.70740   1.000
    O92     O    0.13502   0.52738   0.59483   1.000
    O93     O    0.08181   0.47383   0.82086   1.000
    N94     N    0.82702   0.00030   0.25152   1.000
    O95     O    0.71860   0.02630   0.29530   1.000
    O96     O    0.86600   0.97518   0.09476   1.000
    O97     O    0.91901   0.97277   0.18158   1.000
    O98     O    0.71891   0.97411   0.20760   1.000
    O99     O    0.86543   0.02597   0.40752   1.000
    O100    O    0.91855   0.02764   0.32156   1.000
    N101    N    0.00106   0.17547   0.99922   1.000
    O102    O    0.02715   0.28314   0.04426   1.000
    O103    O    0.02817   0.08292   0.07131   1.000
    O104    O    0.97386   0.08368   0.92719   1.000
    O105    O    0.02717   0.13666   0.15491   1.000
    O106    O    0.97461   0.28372   0.95538   1.000
    N107    N    0.49934   0.82550   0.50176   1.000
    O108    O    0.47273   0.91749   0.57443   1.000
    O109    O    0.52654   0.86399   0.34649   1.000
    O110    O    0.47312   0.71739   0.54548   1.000
    O111    O    0.52554   0.71776   0.45682   1.000
    O112    O    0.52702   0.91782   0.42990   1.000
    N113    N    0.17343   0.00138   0.75090   1.000
    O114    O    0.08162   0.02797   0.68039   1.000
    O115    O    0.08181   0.97383   0.82085   1.000
    O116    O    0.28174   0.97562   0.79477   1.000
    O117    O    0.28164   0.02732   0.70739   1.000
    O118    O    0.13517   0.97473   0.90701   1.000
    O119    O    0.13503   0.02739   0.59482   1.000
    O120    O    0.97293   0.87527   0.64613   1.000
    O121    O    0.47293   0.87527   0.64614   1.000
    O122    O    0.97293   0.37527   0.64614   1.000
    O123    O    0.47293   0.37528   0.64614   1.000
    O124    O    0.47411   0.12579   0.85518   1.000
    O125    O    0.47411   0.62578   0.85518   1.000
    O126    O    0.97410   0.12579   0.85518   1.000
    O127    O    0.97406   0.62578   0.85518   1.000
loop_
    _geom_bond_atom_site_label_1
    _geom_bond_atom_site_label_2
    _geom_bond_distance
    _geom_bond_site_symmetry_2
    _ccdc_geom_bond_type
    N16    O17       2.21466      .   S
    Zr0    O17       3.15272      .   S
    N16    O18       2.38937      .   S
    Zr2    O18       3.50249      .   S
    N16    O19       2.38868  1_545   S
    Zr11   O19       3.50641      .   S
    N16    O20       2.21487  1_545   S
    Zr9    O20       3.15452      .   S
    N16    O21       2.39216      .   S
    Zr14   O21       3.51696      .   S
    N16    O22       2.39428  1_545   S
    Zr7    O22       3.52103  1_554   S
    N23    O24       2.38700      .   S
    Zr6    O24       3.51081      .   S
    N23    O25       2.37647      .   S
    Zr14   O25       3.48857      .   S
    N23    O26       2.38067      .   S
    Zr0    O26       3.48695      .   S
    N23    O27       2.23299      .   S
    Zr15   O27       3.18138      .   S
    N23    O28       2.22727      .   S
    Zr1    O28       3.16805      .   S
    N29    O30       2.37995  1_556   S
    Zr7    O30       3.48918      .   S
    N29    O31       2.23195  1_556   S
    Zr6    O31       3.18313      .   S
    N29    O32       2.38887  1_556   S
    Zr15   O32       3.51378      .   S
    N29    O33       2.22744      .   S
    Zr8    O33       3.17417      .   S
    N29    O34       2.38061      .   S
    Zr9    O34       3.49169      .   S
    N35    O36       2.22738      .   S
    Zr2    O36       3.16829  1_545   S
    N35    O37       2.38070      .   S
    Zr3    O37       3.48698      .   S
    N35    O38       2.37647  1_655   S
    Zr13   O38       3.48857      .   S
    N35    O39       2.38697  1_655   S
    Zr5    O39       3.51079      .   S
    N35    O40       2.23306  1_655   S
    Zr12   O40       3.18161  1_545   S
    N41    O42       2.38044  1_455   S
    Zr11   O42       3.49152      .   S
    N41    O43       2.22724  1_455   S
    Zr10   O43       3.17400      .   S
    N41    O44       2.38910  1_556   S
    Zr13   O44       3.51399      .   S
    N41    O45       2.38017  1_556   S
    Zr5    O45       3.48939      .   S
    N41    O46       2.23218  1_556   S
    Zr4    O46       3.18333      .   S
    N47    O48       2.39372      .   S
    Zr0    O48       3.52670      .   S
    N47    O49       2.40163  1_545   S
    Zr9    O49       3.53151  1_556   S
    N47    O50       2.21833  1_545   S
    Zr7    O50       3.16789      .   S
    N47    O51       2.39217  1_545   S
    Zr5    O51       3.50726      .   S
    N47    O52       2.21613      .   S
    Zr14   O52       3.16334      .   S
    N47    O53       2.39102      .   S
    Zr12   O53       3.50764      .   S
    N54    O55       2.38701  1_655   S
    Zr4    O55       3.51083      .   S
    N54    O56       2.22730      .   S
    Zr3    O56       3.16807      .   S
    N54    O57       2.38069      .   S
    Zr2    O57       3.48698      .   S
    N54    O58       2.37648  1_655   S
    Zr12   O58       3.48859      .   S
    N54    O59       2.23301  1_655   S
    Zr13   O59       3.18140      .   S
    N60    O61       2.39214      .   S
    Zr6    O61       3.50724      .   S
    N60    O62       2.21838      .   S
    Zr4    O62       3.16809  1_455   S
    N60    O63       2.21618      .   S
    Zr13   O63       3.16354  1_455   S
    N60    O64       2.40162      .   S
    Zr10   O64       3.53149  1_556   S
    N60    O65       2.39370      .   S
    Zr3    O65       3.52668      .   S
    N60    O66       2.39102      .   S
    Zr15   O66       3.50765      .   S
    N67    O68       2.39228      .   S
    Zr15   O68       3.51708      .   S
    N67    O69       2.38939      .   S
    Zr3    O69       3.50251      .   S
    N67    O70       2.21477      .   S
    Zr8    O70       3.15445      .   S
    N67    O71       2.39412      .   S
    Zr6    O71       3.52089  1_554   S
    N67    O72       2.21471      .   S
    Zr1    O72       3.15274      .   S
    N67    O73       2.38864      .   S
    Zr10   O73       3.50634      .   S
    N74    O75       2.39370      .   S
    Zr1    O75       3.52668      .   S
    N74    O76       2.40161      .   S
    Zr8    O76       3.53149  1_556   S
    N74    O77       2.21832      .   S
    Zr6    O77       3.16788      .   S
    N74    O78       2.39101      .   S
    Zr13   O78       3.50764      .   S
    N74    O79       2.21611      .   S
    Zr15   O79       3.16332      .   S
    N74    O80       2.39214      .   S
    Zr4    O80       3.50724      .   S
    N81    O82       2.22751      .   S
    Zr9    O82       3.17440  1_565   S
    N81    O83       2.23201  1_556   S
    Zr7    O83       3.18333  1_565   S
    N81    O84       2.37995  1_556   S
    Zr6    O84       3.48917      .   S
    N81    O85       2.38887  1_556   S
    Zr14   O85       3.51379      .   S
    N81    O86       2.38062      .   S
    Zr8    O86       3.49170      .   S
    N87    O88       2.21476      .   S
    Zr3    O88       3.15295  1_655   S
    N87    O89       2.38865      .   S
    Zr8    O89       3.50635      .   S
    N87    O90       2.39414      .   S
    Zr4    O90       3.52090  1_554   S
    N87    O91       2.38938      .   S
    Zr1    O91       3.50250      .   S
    N87    O92       2.39225      .   S
    Zr13   O92       3.51705      .   S
    N87    O93       2.21485      .   S
    Zr10   O93       3.15468  1_655   S
    N94    O95       2.39101      .   S
    Zr14   O95       3.50765      .   S
    N94    O96       2.40166  1_545   S
    Zr11   O96       3.53154  1_556   S
    N94    O97       2.21841  1_545   S
    Zr5    O97       3.16812  1_455   S
    N94    O98       2.39218  1_545   S
    Zr7    O98       3.50729      .   S
    N94    O99       2.39369      .   S
    Zr2    O99       3.52667      .   S
    N94    O100      2.21619      .   S
    Zr12   O100      3.16355  1_455   S
    N101   O102      2.37989  1_556   S
    Zr4    O102      3.48932      .   S
    N101   O103      2.23205  1_556   S
    Zr5    O103      3.18336  1_565   S
    N101   O104      2.22751  1_455   S
    Zr11   O104      3.17440  1_565   S
    N101   O105      2.38893  1_556   S
    Zr12   O105      3.51384      .   S
    N101   O106      2.38062  1_455   S
    Zr10   O106      3.49169      .   S
    N107   O108      2.22733      .   S
    Zr0    O108      3.16826  1_545   S
    N107   O109      2.38700      .   S
    Zr7    O109      3.51082      .   S
    N107   O110      2.38067      .   S
    Zr1    O110      3.48695      .   S
    N107   O111      2.37647      .   S
    Zr15   O111      3.48858      .   S
    N107   O112      2.23306      .   S
    Zr14   O112      3.18159  1_545   S
    N113   O114      2.21471      .   S
    Zr2    O114      3.15292  1_655   S
    N113   O115      2.21494  1_545   S
    Zr11   O115      3.15473  1_655   S
    N113   O116      2.38872  1_545   S
    Zr9    O116      3.50637      .   S
    N113   O117      2.38937      .   S
    Zr0    O117      3.50248      .   S
    N113   O118      2.39430  1_545   S
    Zr5    O118      3.52105  1_554   S
    N113   O119      2.39214      .   S
    Zr12   O119      3.51693      .   S
    Zr11   O120      3.52668      .   S
    N35    O120      2.33945      .   S
    Zr9    O121      3.52661      .   S
    N107   O121      2.33938      .   S
    Zr10   O122      3.52664      .   S
    N54    O122      2.33941      .   S
    Zr8    O123      3.52662      .   S
    N23    O123      2.33939      .   S
    Zr0    O124      3.53631      .   S
    N81    O124      2.34056      .   S
    Zr1    O125      3.53632      .   S
    N29    O125      2.34056      .   S
    Zr2    O126      3.53629      .   S
    N101   O126      2.34054  1_455   S
    Zr3    O127      3.53613      .   S
    N41    O127      2.34035  1_455   S
