# CIF file generated by openbabel 2.4.90, see http://openbabel.sf.net
data_I
_chemical_name_common ''
_cell_length_a 8.746
_cell_length_b 12.063
_cell_length_c 24.0786
_cell_angle_alpha 85.582
_cell_angle_beta 79.8119
_cell_angle_gamma 89.886
_space_group_name_H-M_alt 'P 1'
_space_group_name_Hall 'P 1'
loop_
    _symmetry_equiv_pos_as_xyz
    x,y,z
loop_
    _atom_site_label
    _atom_site_type_symbol
    _atom_site_fract_x
    _atom_site_fract_y
    _atom_site_fract_z
    _atom_site_occupancy
    Ag0     Ag   0.58095   0.00721   0.20389   1.000
    Ag1     Ag   0.18415   0.50917   0.20715   1.000
    Ag2     Ag   0.41171   0.00000   0.79638   1.000
    Ag3     Ag   0.33663   0.01437   0.66478   1.000
    Ag4     Ag   0.65618   0.98935   0.33553   1.000
    Ag5     Ag   0.98430   0.49263   0.33523   1.000
    Ag6     Ag   0.00942   0.51136   0.66422   1.000
    Ag7     Ag   0.80889   0.49266   0.79256   1.000
loop_
    _geom_bond_atom_site_label_1
    _geom_bond_atom_site_label_2
    _geom_bond_distance
    _geom_bond_site_symmetry_2
    _ccdc_geom_bond_type
    Ag0    Ag4       3.34043  1_545   S
    Ag1    Ag5       3.25675  1_455   S
    Ag6    Ag7       3.26391  1_455   S
    Ag3    Ag2       3.33955      .   S
