# CIF file generated by openbabel 2.4.90, see http://openbabel.sf.net
data_I
_chemical_name_common ''
_cell_length_a 10.3735
_cell_length_b 13.1705
_cell_length_c 19.994
_cell_angle_alpha 90.022
_cell_angle_beta 90.002
_cell_angle_gamma 90.307
_space_group_name_H-M_alt 'P 1'
_space_group_name_Hall 'P 1'
loop_
    _symmetry_equiv_pos_as_xyz
    x,y,z
loop_
    _atom_site_label
    _atom_site_type_symbol
    _atom_site_fract_x
    _atom_site_fract_y
    _atom_site_fract_z
    _atom_site_occupancy
    Zn0     Zn   0.63333   0.18233   0.98599   1.000
    Zn1     Zn   0.56477   0.88394   0.48606   1.000
    Zn2     Zn   0.86666   0.81768   0.48597   1.000
    Zn3     Zn   0.06200   0.61364   0.51404   1.000
    Zn4     Zn   0.36641   0.68015   0.51386   1.000
    Zn5     Zn   0.43800   0.38636   0.01402   1.000
    Zn6     Zn   0.13356   0.31988   0.01384   1.000
    H7      H    0.72500   0.46204   0.00784   1.000
    H8      H    0.62632   0.44025   0.12159   1.000
    H9      H    0.79845   0.43840   0.12594   1.000
    H10     H    0.70791   0.32257   0.13127   1.000
    H11     H    0.95775   0.97362   0.79908   1.000
    H12     H    0.56864   0.08298   0.79231   1.000
    H13     H    0.55073   0.02643   0.67267   1.000
    H14     H    0.94030   0.91819   0.67945   1.000
    H15     H    0.77495   0.53799   0.50662   1.000
    H16     H    0.87333   0.55757   0.62061   1.000
    H17     H    0.70120   0.55951   0.62485   1.000
    H18     H    0.79190   0.67514   0.63123   1.000
    H19     H    0.54254   0.02673   0.29918   1.000
    H20     H    0.93163   0.91770   0.29246   1.000
    H21     H    0.94957   0.97429   0.17286   1.000
    H22     H    0.55992   0.08222   0.17959   1.000
    H23     H    0.27719   0.95905   0.49311   1.000
    H24     H    0.37660   0.93962   0.37941   1.000
    H25     H    0.20448   0.93726   0.37473   1.000
    H26     H    0.29413   0.82186   0.36857   1.000
    H27     H    0.04259   0.47158   0.70193   1.000
    H28     H    0.43323   0.58097   0.70545   1.000
    H29     H    0.45358   0.52613   0.82531   1.000
    H30     H    0.06248   0.41778   0.82178   1.000
    H31     H    0.22277   0.04094   0.99333   1.000
    Zn32    Zn   0.93520   0.11607   0.98607   1.000
    H33     H    0.12339   0.05973   0.87959   1.000
    H34     H    0.29551   0.06212   0.87492   1.000
    H35     H    0.20580   0.17745   0.86854   1.000
    H36     H    0.45779   0.52775   0.20214   1.000
    H37     H    0.06706   0.41856   0.20553   1.000
    H38     H    0.04671   0.47333   0.32543   1.000
    H39     H    0.43789   0.58149   0.32204   1.000
    C40     C    0.84310   0.33116   0.01235   1.000
    C41     C    0.71884   0.38615   0.03126   1.000
    C42     C    0.71291   0.39775   0.10753   1.000
    C43     C    0.77482   0.06687   0.87372   1.000
    C44     C    0.76401   0.03146   0.80274   1.000
    C45     C    0.86904   0.98491   0.77105   1.000
    C46     C    0.64917   0.04659   0.76710   1.000
    C47     C    0.73336   0.93360   0.59816   1.000
    C48     C    0.74445   0.96892   0.66915   1.000
    C49     C    0.63942   0.01547   0.70080   1.000
    C50     C    0.85946   0.95412   0.70468   1.000
    C51     C    0.65689   0.66875   0.51210   1.000
    C52     C    0.78110   0.61345   0.53069   1.000
    C53     C    0.78685   0.60042   0.60684   1.000
    C54     C    0.72517   0.93322   0.37374   1.000
    C55     C    0.73605   0.96877   0.30281   1.000
    C56     C    0.63111   0.01518   0.27107   1.000
    C57     C    0.85102   0.95392   0.26722   1.000
    C58     C    0.76660   0.06633   0.09814   1.000
    C59     C    0.75549   0.03091   0.16909   1.000
    C60     C    0.86078   0.98505   0.20094   1.000
    C61     C    0.64065   0.04600   0.20472   1.000
    C62     C    0.15802   0.82783   0.48742   1.000
    C63     C    0.28298   0.88360   0.46907   1.000
    C64     C    0.28958   0.89658   0.39294   1.000
    C65     C    0.22486   0.56464   0.62583   1.000
    C66     C    0.23683   0.52955   0.69675   1.000
    C67     C    0.13209   0.48337   0.72934   1.000
    C68     C    0.35289   0.54498   0.73146   1.000
    C69     C    0.27068   0.43507   0.90169   1.000
    C70     C    0.25900   0.46913   0.83053   1.000
    C71     C    0.36400   0.51485   0.79785   1.000
    C72     C    0.14302   0.45351   0.79579   1.000
    C73     C    0.34195   0.17212   0.98743   1.000
    C74     C    0.21698   0.11627   0.96915   1.000
    C75     C    0.21039   0.10287   0.89305   1.000
    C76     C    0.27527   0.43518   0.12588   1.000
    C77     C    0.26346   0.46997   0.19689   1.000
    C78     C    0.36827   0.51600   0.22954   1.000
    C79     C    0.14740   0.45450   0.23158   1.000
    C80     C    0.22949   0.56467   0.40179   1.000
    C81     C    0.24129   0.53032   0.33069   1.000
    C82     C    0.13629   0.48460   0.29799   1.000
    C83     C    0.35733   0.54582   0.29601   1.000
    O84     O    0.82864   0.24458   0.98344   1.000
    O85     O    0.60991   0.33263   0.00546   1.000
    O86     O    0.94920   0.37192   0.02691   1.000
    O87     O    0.88280   0.04933   0.90312   1.000
    O88     O    0.67824   0.11128   0.89898   1.000
    O89     O    0.62378   0.94654   0.56983   1.000
    O90     O    0.83234   0.89298   0.57205   1.000
    O91     O    0.67140   0.75546   0.48342   1.000
    O92     O    0.89013   0.66737   0.50541   1.000
    O93     O    0.55078   0.62802   0.52664   1.000
    O94     O    0.61715   0.95067   0.40314   1.000
    O95     O    0.82173   0.88877   0.39898   1.000
    O96     O    0.87620   0.05344   0.06981   1.000
    O97     O    0.66765   0.10703   0.07207   1.000
    O98     O    0.17151   0.74182   0.51688   1.000
    O99     O    0.39162   0.83026   0.49466   1.000
    O100    O    0.05227   0.86752   0.47194   1.000
    O101    O    0.11624   0.54716   0.59683   1.000
    O102    O    0.32178   0.60901   0.60032   1.000
    O103    O    0.38048   0.44868   0.92985   1.000
    O104    O    0.17144   0.39468   0.92812   1.000
    O105    O    0.32845   0.25819   0.01685   1.000
    O106    O    0.10834   0.16974   0.99464   1.000
    O107    O    0.44770   0.13242   0.97195   1.000
    O108    O    0.38382   0.45280   0.09686   1.000
    O109    O    0.17827   0.39096   0.10033   1.000
    O110    O    0.11966   0.55119   0.42993   1.000
    O111    O    0.32866   0.60525   0.42818   1.000
loop_
    _geom_bond_atom_site_label_1
    _geom_bond_atom_site_label_2
    _geom_bond_distance
    _geom_bond_site_symmetry_2
    _ccdc_geom_bond_type
    O85    Zn5       1.92975      .   S
    O85    C41       1.42510      .   S
    H7     C41       1.10549      .   S
    C40    O86       1.25611      .   S
    C40    C41       1.52932      .   S
    C40    O84       1.28626  1_554   S
    Zn6    O86       2.05174  1_455   S
    Zn6    O109      2.01900      .   S
    Zn6    O104      2.01481  1_554   S
    Zn5    O105      2.03071      .   S
    Zn5    O108      1.95688      .   S
    Zn5    O103      1.96671  1_554   S
    O105   C73       1.28524  1_554   S
    C41    C42       1.53370      .   S
    O96    C58       1.28235      .   S
    O96    Zn32      1.96313  1_554   S
    O97    C58       1.27229      .   S
    O97    Zn0       2.01937  1_554   S
    O108   C76       1.28673      .   S
    C58    C59       1.49768      .   S
    O109   C76       1.26741      .   S
    C42    H8        1.09751      .   S
    C42    H9        1.09745      .   S
    C42    H10       1.09917      .   S
    C76    C77       1.49683      .   S
    C59    C60       1.40383  1_545   S
    C59    C61       1.40313      .   S
    H21    C60       1.08865      .   S
    H22    C61       1.08893      .   S
    C77    C78       1.40292      .   S
    C77    C79       1.40349      .   S
    C60    C57       1.39085      .   S
    H36    C78       1.08849      .   S
    C61    C56       1.39084      .   S
    H37    C79       1.08885      .   S
    C78    C83       1.39050      .   S
    C79    C82       1.39054      .   S
    C57    H20       1.08897      .   S
    C57    C55       1.40330      .   S
    C56    H19       1.08842      .   S
    C56    C55       1.40312  1_545   S
    C83    H39       1.08879      .   S
    C83    C81       1.40326      .   S
    C82    H38       1.08874      .   S
    C82    C81       1.40318      .   S
    C55    C54       1.49780      .   S
    C81    C80       1.49686      .   S
    H26    C64       1.09915      .   S
    C54    O95       1.26771      .   S
    C54    O94       1.28710      .   S
    H25    C64       1.09736      .   S
    H24    C64       1.09736      .   S
    C64    C63       1.53323      .   S
    O95    Zn2       2.03104      .   S
    C80    O111      1.27136      .   S
    C80    O110      1.28212      .   S
    O94    Zn1       1.95263      .   S
    O111   Zn4       2.01380      .   S
    O110   Zn3       1.96644      .   S
    C63    C62       1.53116      .   S
    C63    H23       1.10561      .   S
    C63    O99       1.42614      .   S
    O100   Zn2       2.05030  1_455   S
    O100   C62       1.25652      .   S
    O91    Zn1       2.02733      .   S
    O91    C51       1.28614      .   S
    Zn2    O90       2.01867      .   S
    Zn1    O99       1.93443      .   S
    Zn1    O89       1.96277      .   S
    C62    O98       1.28518      .   S
    O92    Zn3       1.92950  1_655   S
    O92    C52       1.42503      .   S
    H15    C52       1.10560      .   S
    C51    O93       1.25607      .   S
    C51    C52       1.52934      .   S
    Zn4    O93       2.05152      .   S
    Zn4    O102      2.01926      .   S
    Zn3    O98       2.03052      .   S
    Zn3    O101      1.95710      .   S
    C52    C53       1.53352      .   S
    O89    C47       1.28233      .   S
    O90    C47       1.27226      .   S
    O101   C65       1.28672      .   S
    C47    C48       1.49762      .   S
    O102   C65       1.26747      .   S
    C53    H16       1.09750      .   S
    C53    H17       1.09743      .   S
    C53    H18       1.09916      .   S
    C65    C66       1.49697      .   S
    C48    C49       1.40378  1_565   S
    C48    C50       1.40314      .   S
    H13    C49       1.08865      .   S
    H14    C50       1.08892      .   S
    C66    C67       1.40295      .   S
    C66    C68       1.40351      .   S
    C49    C46       1.39080      .   S
    H27    C67       1.08852      .   S
    C50    C45       1.39081      .   S
    H28    C68       1.08886      .   S
    C67    C72       1.39054      .   S
    C68    C71       1.39059      .   S
    C46    H12       1.08897      .   S
    C46    C44       1.40329      .   S
    C45    H11       1.08842      .   S
    C45    C44       1.40398  1_565   S
    C72    H30       1.08878      .   S
    C72    C70       1.40329      .   S
    C71    H29       1.08874      .   S
    C71    C70       1.40327      .   S
    C44    C43       1.49768      .   S
    C70    C69       1.49703      .   S
    H35    C75       1.09916      .   S
    C43    O88       1.26772      .   S
    C43    O87       1.28703      .   S
    H34    C75       1.09736      .   S
    H33    C75       1.09734      .   S
    C75    C74       1.53322      .   S
    O88    Zn0       2.03037      .   S
    C69    O104      1.27141      .   S
    C69    O103      1.28222      .   S
    O87    Zn32      1.95248      .   S
    C74    C73       1.53120      .   S
    C74    H31       1.10565      .   S
    C74    O106      1.42613      .   S
    O107   Zn0       2.05059      .   S
    O107   C73       1.25652      .   S
    O84    Zn32      2.02721      .   S
    Zn32   O106      1.93424  1_655   S
    O84    Zn0       2.18228      .   S
    O85    Zn0       2.03322  1_554   S
    O91    Zn2       2.18145      .   S
    O92    Zn2       2.03340      .   S
    O98    Zn4       2.18373      .   S
    O99    Zn4       2.02972      .   S
    O105   Zn6       2.18377      .   S
    O106   Zn6       2.02971  1_556   S
