# CIF file generated by openbabel 2.4.90, see http://openbabel.sf.net
data_I
_chemical_name_common ''
_cell_length_a 10.3735
_cell_length_b 13.1705
_cell_length_c 19.994
_cell_angle_alpha 90.022
_cell_angle_beta 90.002
_cell_angle_gamma 90.307
_space_group_name_H-M_alt 'P 1'
_space_group_name_Hall 'P 1'
loop_
    _symmetry_equiv_pos_as_xyz
    x,y,z
loop_
    _atom_site_label
    _atom_site_type_symbol
    _atom_site_fract_x
    _atom_site_fract_y
    _atom_site_fract_z
    _atom_site_occupancy
    N0      N    0.75427   0.00021   0.73593   1.000
    N1      N    0.74785   0.62637   0.55484   1.000
    N2      N    0.74583   0.00002   0.23599   1.000
    N3      N    0.24984   0.87054   0.44487   1.000
    N4      N    0.75203   0.37275   0.05536   1.000
    N5      N    0.25013   0.12919   0.94494   1.000
    N6      N    0.25242   0.50015   0.26380   1.000
    N7      N    0.24782   0.49944   0.76368   1.000
    Zr8     Zr   0.13356   0.31988   0.01384   1.000
    O9      O    0.15955   0.25344   0.99421   1.000
    O10     O    0.16886   0.37383   0.08714   1.000
    O11     O    0.01513   0.33960   0.02585   1.000
    O12     O    0.16686   0.37412   0.94058   1.000
    O13     O    0.18706   0.26449   0.99699   1.000
    Zr14    Zr   0.93520   0.11607   0.98607   1.000
    O15     O    0.88342   0.07876   0.91317   1.000
    O16     O    0.88048   0.07923   0.05902   1.000
    O17     O    0.87609   0.19630   0.00306   1.000
    O18     O    0.03557   0.12606   0.97686   1.000
    Zr19    Zr   0.43800   0.38636   0.01402   1.000
    O20     O    0.37734   0.30605   0.99710   1.000
    O21     O    0.38483   0.42312   0.08682   1.000
    O22     O    0.53799   0.37624   0.02328   1.000
    O23     O    0.38326   0.42242   0.94091   1.000
    Zr24    Zr   0.63333   0.18233   0.98599   1.000
    O25     O    0.51432   0.16280   0.97397   1.000
    O26     O    0.66918   0.12792   0.91260   1.000
    O27     O    0.66574   0.12734   0.05925   1.000
    O28     O    0.66008   0.24872   0.00576   1.000
    O29     O    0.68742   0.23771   0.00301   1.000
    Zr30    Zr   0.56477   0.88394   0.48606   1.000
    O31     O    0.61952   0.92083   0.55900   1.000
    O32     O    0.61658   0.92130   0.41318   1.000
    O33     O    0.46439   0.87388   0.47684   1.000
    O34     O    0.62387   0.80349   0.50293   1.000
    Zr35    Zr   0.86666   0.81768   0.48597   1.000
    O36     O    0.81255   0.76207   0.50287   1.000
    O37     O    0.83427   0.87272   0.55922   1.000
    O38     O    0.83083   0.87215   0.41260   1.000
    O39     O    0.98565   0.83712   0.47394   1.000
    O40     O    0.83989   0.75106   0.50562   1.000
    Zr41    Zr   0.06200   0.61364   0.51404   1.000
    O42     O    0.11524   0.57678   0.58680   1.000
    O43     O    0.96198   0.62354   0.52316   1.000
    O44     O    0.12265   0.69389   0.49710   1.000
    O45     O    0.11681   0.57746   0.44096   1.000
    Zr46    Zr   0.36641   0.68015   0.51386   1.000
    O47     O    0.48482   0.66019   0.52570   1.000
    O48     O    0.33319   0.62579   0.44063   1.000
    O49     O    0.34042   0.74651   0.49421   1.000
    O50     O    0.31290   0.73545   0.49699   1.000
    O51     O    0.33118   0.62608   0.58712   1.000
loop_
    _geom_bond_atom_site_label_1
    _geom_bond_atom_site_label_2
    _geom_bond_distance
    _geom_bond_site_symmetry_2
    _ccdc_geom_bond_type
    Zr8    O9        0.99730  1_554   S
    N5     O9        2.13227      .   S
    Zr8    O10       1.66837      .   S
    N6     O10       3.99689      .   S
    Zr8    O11       1.27976      .   S
    N4     O11       2.82847  1_655   S
    Zr8    O12       1.66526  1_554   S
    N7     O12       3.99126      .   S
    Zr8    O13       0.97864  1_554   S
    N5     O13       2.16743      .   S
    Zr14   O15       1.62827      .   S
    N0     O15       3.92493      .   S
    Zr14   O16       1.63783  1_556   S
    N2     O16       3.94296      .   S
    Zr14   O17       1.27074  1_556   S
    N4     O17       2.86007      .   S
    Zr14   O18       1.06488  1_655   S
    N5     O18       2.31552      .   S
    Zr19   O20       1.27352  1_554   S
    N5     O20       2.86704      .   S
    Zr19   O21       1.63082      .   S
    N6     O21       3.93065      .   S
    Zr19   O22       1.06284      .   S
    N4     O22       2.31174      .   S
    Zr19   O23       1.63945  1_554   S
    N7     O23       3.94688      .   S
    Zr24   O25       1.28229      .   S
    N5     O25       2.83383      .   S
    Zr24   O26       1.67543      .   S
    N0     O26       4.01206      .   S
    Zr24   O27       1.66932  1_556   S
    N2     O27       4.00113      .   S
    Zr24   O28       0.99756  1_556   S
    N4     O28       2.13155      .   S
    Zr24   O29       0.97891  1_556   S
    N4     O29       2.16643      .   S
    Zr30   O31       1.63759      .   S
    N0     O31       3.94233  1_545   S
    Zr30   O32       1.62860      .   S
    N2     O32       3.92577  1_545   S
    Zr30   O33       1.06501      .   S
    N3     O33       2.31580      .   S
    Zr30   O34       1.27262      .   S
    N1     O34       2.86480      .   S
    Zr35   O36       0.98045      .   S
    N1     O36       2.17095      .   S
    Zr35   O37       1.66889      .   S
    N0     O37       4.00015  1_545   S
    Zr35   O38       1.67582      .   S
    N2     O38       4.01291  1_545   S
    Zr35   O39       1.28215      .   S
    N3     O39       2.83362  1_455   S
    Zr35   O40       0.99940      .   S
    N1     O40       2.13577      .   S
    Zr41   O42       1.63106      .   S
    N7     O42       3.93114      .   S
    Zr41   O43       1.06221  1_455   S
    N1     O43       2.31033      .   S
    Zr41   O44       1.27304      .   S
    N3     O44       2.86587      .   S
    Zr41   O45       1.63932      .   S
    N6     O45       3.94661      .   S
    Zr46   O47       1.27961      .   S
    N1     O47       2.82777      .   S
    Zr46   O48       1.66471      .   S
    N6     O48       3.99011      .   S
    Zr46   O49       0.99684      .   S
    N3     O49       2.13122      .   S
    Zr46   O50       0.97823      .   S
    N3     O50       2.16632      .   S
    Zr46   O51       1.66864      .   S
    N7     O51       3.99753      .   S
