# CIF file generated by openbabel 2.4.90, see http://openbabel.sf.net
data_I
_chemical_name_common ''
_cell_length_a 15.345
_cell_length_b 15.371
_cell_length_c 22.383
_cell_angle_alpha 84.315
_cell_angle_beta 87.394
_cell_angle_gamma 81.031
_space_group_name_H-M_alt 'P 1'
_space_group_name_Hall 'P 1'
loop_
    _symmetry_equiv_pos_as_xyz
    x,y,z
loop_
    _atom_site_label
    _atom_site_type_symbol
    _atom_site_fract_x
    _atom_site_fract_y
    _atom_site_fract_z
    _atom_site_occupancy
    Lv0     Lv   0.70107   0.38371   0.74080   1.000
    Lv1     Lv   0.68862   0.89296   0.24189   1.000
    Lv2     Lv   0.31138   0.10716   0.75815   1.000
    Lv3     Lv   0.80205   0.12335   0.25596   1.000
    Lv4     Lv   0.29893   0.61631   0.25920   1.000
    Lv5     Lv   0.19896   0.87669   0.74404   1.000
