# CIF file generated by openbabel 2.4.90, see http://openbabel.sf.net
data_I
_chemical_name_common ''
_cell_length_a 15.345
_cell_length_b 15.371
_cell_length_c 22.383
_cell_angle_alpha 84.315
_cell_angle_beta 87.394
_cell_angle_gamma 81.031
_space_group_name_H-M_alt 'P 1'
_space_group_name_Hall 'P 1'
loop_
    _symmetry_equiv_pos_as_xyz
    x,y,z
loop_
    _atom_site_label
    _atom_site_type_symbol
    _atom_site_fract_x
    _atom_site_fract_y
    _atom_site_fract_z
    _atom_site_occupancy
    Zr0     Zr   0.30004   0.10716   0.32057   1.000
    Zr1     Zr   0.30503   0.12565   0.19506   1.000
    Zr2     Zr   0.69998   0.89286   0.67943   1.000
    Zr3     Zr   0.69504   0.87436   0.80494   1.000
    Zr4     Zr   0.30735   0.94419   0.26115   1.000
    Zr5     Zr   0.29415   0.28778   0.25743   1.000
    Zr6     Zr   0.13129   0.12941   0.25605   1.000
    Zr7     Zr   0.47467   0.10720   0.25633   1.000
    Zr8     Zr   0.69266   0.05583   0.73887   1.000
    Zr9     Zr   0.70589   0.71224   0.74257   1.000
    Zr10    Zr   0.86875   0.87057   0.74394   1.000
    Zr11    Zr   0.52535   0.89287   0.74367   1.000
    Zr12    Zr   0.43333   0.11145   0.30688   1.000
    Zr13    Zr   0.44144   0.09779   0.20665   1.000
    Zr14    Zr   0.16921   0.15152   0.20625   1.000
    Zr15    Zr   0.16897   0.10622   0.30598   1.000
    Zr16    Zr   0.32199   0.97191   0.31106   1.000
    Zr17    Zr   0.29653   0.00000   0.21120   1.000
    Zr18    Zr   0.27752   0.24476   0.30718   1.000
    Zr19    Zr   0.31191   0.25509   0.20726   1.000
    Zr20    Zr   0.56669   0.88854   0.69312   1.000
    Zr21    Zr   0.55860   0.90230   0.79334   1.000
    Zr22    Zr   0.83083   0.84848   0.79375   1.000
    Zr23    Zr   0.83105   0.89383   0.69402   1.000
    Zr24    Zr   0.67802   0.02810   0.68896   1.000
    Zr25    Zr   0.70353   0.00850   0.78881   1.000
    Zr26    Zr   0.72251   0.75526   0.69281   1.000
    Zr27    Zr   0.68809   0.74494   0.79273   1.000
    O28     O    0.23712   0.13859   0.20065   1.000
    O29     O    0.37323   0.11172   0.20085   1.000
    O30     O    0.30847   0.19037   0.20116   1.000
    O31     O    0.30078   0.06283   0.20313   1.000
    O32     O    0.15025   0.14047   0.23115   1.000
    O33     O    0.45806   0.10250   0.23149   1.000
    O34     O    0.30303   0.27143   0.23234   1.000
    O35     O    0.30194   0.97209   0.23617   1.000
    O36     O    0.15013   0.11782   0.28102   1.000
    O37     O    0.45400   0.10933   0.28160   1.000
    O38     O    0.28583   0.26627   0.28230   1.000
    O39     O    0.31467   0.95805   0.28610   1.000
    O40     O    0.23450   0.10669   0.31328   1.000
    O41     O    0.36668   0.10930   0.31373   1.000
    O42     O    0.28878   0.17596   0.31387   1.000
    O43     O    0.31101   0.03954   0.31581   1.000
    O44     O    0.68900   0.96048   0.68420   1.000
    O45     O    0.71124   0.82406   0.68612   1.000
    O46     O    0.63333   0.89070   0.68627   1.000
    O47     O    0.76552   0.89334   0.68672   1.000
    O48     O    0.68534   0.04197   0.71392   1.000
    O49     O    0.71420   0.73375   0.71769   1.000
    O50     O    0.54602   0.89070   0.71839   1.000
    O51     O    0.84990   0.88220   0.71898   1.000
    O52     O    0.69809   0.03217   0.76384   1.000
    O53     O    0.69699   0.72859   0.76765   1.000
    O54     O    0.54197   0.89758   0.76850   1.000
    O55     O    0.84979   0.85953   0.76884   1.000
    O56     O    0.69929   0.94143   0.79688   1.000
    O57     O    0.69157   0.80965   0.79884   1.000
    O58     O    0.62682   0.88833   0.79914   1.000
    O59     O    0.76294   0.86142   0.79934   1.000
    O60     O    0.30253   0.11640   0.25781   1.000
    O61     O    0.69751   0.88361   0.74218   1.000
    N62     N    0.70107   0.38371   0.74080   1.000
    O63     O    0.69759   0.24400   0.73993   1.000
    O64     O    0.70349   0.52360   0.74161   1.000
    N65     N    0.68862   0.89296   0.24189   1.000
    O66     O    0.68988   0.88380   0.04649   1.000
    O67     O    0.69401   0.89492   0.43754   1.000
    N68     N    0.31138   0.10716   0.75815   1.000
    O69     O    0.31015   0.11627   0.95353   1.000
    O70     O    0.30599   0.10516   0.56248   1.000
    N71     N    0.80205   0.12335   0.25596   1.000
    O72     O    0.66249   0.11684   0.25604   1.000
    O73     O    0.94223   0.12640   0.25603   1.000
    N74     N    0.29893   0.61631   0.25920   1.000
    O75     O    0.29652   0.47642   0.25839   1.000
    O76     O    0.30241   0.75602   0.26008   1.000
    N77     N    0.19896   0.87669   0.74404   1.000
    O78     O    0.05829   0.87363   0.74397   1.000
    O79     O    0.33803   0.88321   0.74396   1.000
loop_
    _geom_bond_atom_site_label_1
    _geom_bond_atom_site_label_2
    _geom_bond_distance
    _geom_bond_site_symmetry_2
    _ccdc_geom_bond_type
    Zr1    O28       1.03421      .   S
    Zr14   O28       1.03421      .   S
    Zr1    O29       1.04642      .   S
    Zr13   O29       1.04642      .   S
    Zr1    O30       1.02714      .   S
    Zr19   O30       1.02714      .   S
    Zr1    O31       0.97645      .   S
    Zr17   O31       0.97645      .   S
    Zr14   O32       0.63722      .   S
    Zr6    O32       0.63722      .   S
    Zr13   O33       0.63718      .   S
    Zr7    O33       0.63718      .   S
    Zr19   O34       0.63814      .   S
    Zr5    O34       0.63814      .   S
    Zr17   O35       0.67006  1_545   S
    Zr4    O35       0.67006      .   S
    Zr6    O36       0.63760      .   S
    Zr15   O36       0.63760      .   S
    Zr7    O37       0.63709      .   S
    Zr12   O37       0.63709      .   S
    Zr5    O38       0.63707      .   S
    Zr18   O38       0.63707      .   S
    Zr4    O39       0.63774      .   S
    Zr16   O39       0.63774      .   S
    Zr15   O40       1.02733      .   S
    Zr0    O40       1.02733      .   S
    Zr12   O41       1.03236      .   S
    Zr0    O41       1.03236      .   S
    Zr18   O42       1.04146      .   S
    Zr0    O42       1.04146      .   S
    Zr16   O43       1.04203  1_565   S
    Zr0    O43       1.04203      .   S
    Zr2    O44       1.04206      .   S
    Zr24   O44       1.04206  1_545   S
    Zr2    O45       1.04147      .   S
    Zr26   O45       1.04147      .   S
    Zr2    O46       1.03234      .   S
    Zr20   O46       1.03234      .   S
    Zr2    O47       1.02741      .   S
    Zr23   O47       1.02741      .   S
    Zr24   O48       0.63774      .   S
    Zr8    O48       0.63774      .   S
    Zr26   O49       0.63707      .   S
    Zr9    O49       0.63707      .   S
    Zr20   O50       0.63710      .   S
    Zr11   O50       0.63710      .   S
    Zr23   O51       0.63759      .   S
    Zr10   O51       0.63759      .   S
    Zr8    O52       0.63734      .   S
    Zr25   O52       0.63734      .   S
    Zr9    O53       0.63814      .   S
    Zr27   O53       0.63814      .   S
    Zr11   O54       0.63718      .   S
    Zr21   O54       0.63718      .   S
    Zr10   O55       0.63723      .   S
    Zr22   O55       0.63723      .   S
    Zr25   O56       1.04048  1_545   S
    Zr3    O56       1.04048      .   S
    Zr27   O57       1.02712      .   S
    Zr3    O57       1.02712      .   S
    Zr21   O58       1.04673      .   S
    Zr3    O58       1.04673      .   S
    Zr22   O59       1.03401      .   S
    Zr3    O59       1.03401      .   S
    Zr0    O60       1.39715      .   S
    Zr1    O60       1.39715      .   S
    Zr2    O61       1.39717      .   S
    Zr3    O61       1.39717      .   S
    N62    O63       2.15843      .   S
    Zr8    O63       2.90761      .   S
    N62    O64       2.15828      .   S
    Zr9    O64       2.90771      .   S
    N65    O66       4.38902      .   S
    Zr3    O66       5.41952  1_556   S
    N65    O67       4.38691      .   S
    Zr2    O67       5.41589      .   S
    N68    O69       4.38835      .   S
    Zr1    O69       5.41884  1_554   S
    N68    O70       4.38758      .   S
    Zr0    O70       5.41657      .   S
    N71    O72       2.15930      .   S
    Zr7    O72       2.90853      .   S
    N71    O73       2.15893      .   S
    Zr6    O73       2.90866  1_455   S
    N74    O75       2.15830      .   S
    Zr5    O75       2.90774      .   S
    N74    O76       2.15844      .   S
    Zr4    O76       2.90760      .   S
    N77    O78       2.16652      .   S
    Zr10   O78       2.91624  1_655   S
    N77    O79       2.15171      .   S
    Zr11   O79       2.90097      .   S
