# CIF file generated by openbabel 2.4.90, see http://openbabel.sf.net
data_I
_chemical_name_common ''
_cell_length_a 20.649
_cell_length_b 13.709
_cell_length_c 14.912
_cell_angle_alpha 89.983
_cell_angle_beta 90
_cell_angle_gamma 90.33
_space_group_name_H-M_alt 'P 1'
_space_group_name_Hall 'P 1'
loop_
    _symmetry_equiv_pos_as_xyz
    x,y,z
loop_
    _atom_site_label
    _atom_site_type_symbol
    _atom_site_fract_x
    _atom_site_fract_y
    _atom_site_fract_z
    _atom_site_occupancy
    N0      N    0.74804   0.87481   0.26443   1.000
    N1      N    0.73915   0.26438   0.10103   1.000
    N2      N    0.26190   0.73595   0.89944   1.000
    N3      N    0.51181   0.23605   0.60069   1.000
    N4      N    0.63603   0.88257   0.60726   1.000
    N5      N    0.24803   0.87435   0.26481   1.000
    N6      N    0.12046   0.40954   0.88895   1.000
    N7      N    0.87053   0.90912   0.61108   1.000
    N8      N    0.75338   0.12478   0.73508   1.000
    N9      N    0.88540   0.38316   0.89257   1.000
    N10     N    0.01187   0.23598   0.60064   1.000
    N11     N    0.62046   0.40868   0.88891   1.000
    N12     N    0.13055   0.09055   0.38886   1.000
    N13     N    0.36564   0.11650   0.39279   1.000
    N14     N    0.98981   0.76411   0.39907   1.000
    N15     N    0.49757   0.37501   0.23599   1.000
    N16     N    0.00383   0.62478   0.76428   1.000
    N17     N    0.50340   0.62480   0.76499   1.000
    N18     N    0.88055   0.59047   0.11121   1.000
    N19     N    0.48981   0.76402   0.39927   1.000
    N20     N    0.76186   0.73605   0.89934   1.000
    N21     N    0.25402   0.12562   0.73536   1.000
    N22     N    0.99810   0.37441   0.23522   1.000
    N23     N    0.11560   0.61737   0.10697   1.000
    N24     N    0.38660   0.38266   0.89391   1.000
    N25     N    0.37042   0.90932   0.61118   1.000
    N26     N    0.63051   0.09072   0.38875   1.000
    N27     N    0.61510   0.61691   0.10686   1.000
    N28     N    0.13551   0.88334   0.60765   1.000
    N29     N    0.38055   0.59060   0.11144   1.000
    N30     N    0.23963   0.26375   0.10073   1.000
    N31     N    0.86559   0.11713   0.39304   1.000
    Zr32    Zr   0.63811   0.77893   0.40002   1.000
    O33     O    0.63508   0.88960   0.39490   1.000
    O34     O    0.58852   0.79055   0.39691   1.000
    O35     O    0.63931   0.82301   0.46486   1.000
    O36     O    0.66967   0.81914   0.35138   1.000
    Zr37    Zr   0.13824   0.77890   0.40220   1.000
    O38     O    0.16977   0.81884   0.35272   1.000
    O39     O    0.13518   0.88951   0.39610   1.000
    O40     O    0.08865   0.79048   0.39802   1.000
    O41     O    0.13930   0.82335   0.46621   1.000
    Zr42    Zr   0.74680   0.10915   0.25808   1.000
    O43     O    0.78455   0.11567   0.30055   1.000
    O44     O    0.74516   0.15574   0.20616   1.000
    O45     O    0.70841   0.10753   0.29758   1.000
    O46     O    0.74782   0.03482   0.25712   1.000
    Zr47    Zr   0.36234   0.22125   0.59767   1.000
    O48     O    0.33142   0.18125   0.64727   1.000
    O49     O    0.41230   0.20985   0.60179   1.000
    O50     O    0.36581   0.11057   0.60393   1.000
    O51     O    0.36151   0.17651   0.53388   1.000
    Zr52    Zr   0.25422   0.89110   0.74239   1.000
    O53     O    0.29252   0.89262   0.70262   1.000
    O54     O    0.21644   0.88458   0.70008   1.000
    O55     O    0.25362   0.96549   0.74309   1.000
    O56     O    0.25596   0.84458   0.79434   1.000
    Zr57    Zr   0.50365   0.38969   0.75860   1.000
    O58     O    0.50279   0.46426   0.75801   1.000
    O59     O    0.50557   0.34373   0.70633   1.000
    O60     O    0.46635   0.38306   0.80105   1.000
    O61     O    0.54218   0.39158   0.79800   1.000
    Zr62    Zr   0.49689   0.60935   0.24206   1.000
    O63     O    0.49548   0.65575   0.29404   1.000
    O64     O    0.45847   0.60764   0.20258   1.000
    O65     O    0.49777   0.53502   0.24308   1.000
    O66     O    0.53446   0.61583   0.19951   1.000
    Zr67    Zr   0.75479   0.71983   0.10852   1.000
    O68     O    0.75770   0.72961   0.04258   1.000
    O69     O    0.79304   0.67531   0.11124   1.000
    O70     O    0.71002   0.68875   0.11062   1.000
    O71     O    0.75520   0.77031   0.15704   1.000
    Zr72    Zr   0.36209   0.88538   0.40406   1.000
    O73     O    0.40194   0.84566   0.39883   1.000
    O74     O    0.32468   0.87883   0.36216   1.000
    O75     O    0.36563   0.95849   0.39858   1.000
    O76     O    0.36201   0.88997   0.47030   1.000
    Zr77    Zr   0.50490   0.22011   0.39159   1.000
    O78     O    0.54309   0.17555   0.38882   1.000
    O79     O    0.50777   0.22981   0.45750   1.000
    O80     O    0.50518   0.27057   0.34315   1.000
    O81     O    0.46019   0.18902   0.38938   1.000
    Zr82    Zr   0.11238   0.72140   0.90014   1.000
    O83     O    0.08140   0.68098   0.85136   1.000
    O84     O    0.16238   0.70989   0.89707   1.000
    O85     O    0.11582   0.61073   0.89494   1.000
    O86     O    0.11156   0.67708   0.96485   1.000
    Zr87    Zr   0.64012   0.11564   0.59581   1.000
    O88     O    0.59995   0.15475   0.60115   1.000
    O89     O    0.63681   0.04194   0.60133   1.000
    O90     O    0.67729   0.12203   0.63775   1.000
    O91     O    0.63966   0.11098   0.52954   1.000
    Zr92    Zr   0.99684   0.60891   0.24194   1.000
    O93     O    0.95845   0.60732   0.20241   1.000
    O94     O    0.03458   0.61559   0.19946   1.000
    O95     O    0.99542   0.65549   0.29389   1.000
    O96     O    0.99782   0.53453   0.24277   1.000
    Zr97    Zr   0.49642   0.77914   0.60847   1.000
    O98     O    0.45802   0.82370   0.61120   1.000
    O99     O    0.54106   0.81068   0.61075   1.000
    O100    O    0.49619   0.72865   0.65701   1.000
    O101    O    0.49377   0.76971   0.54250   1.000
    Zr102   Zr   0.00417   0.39040   0.75796   1.000
    O103    O    0.04250   0.39223   0.79766   1.000
    O104    O    0.00590   0.34414   0.70591   1.000
    O105    O    0.96637   0.38405   0.80025   1.000
    O106    O    0.00351   0.46475   0.75704   1.000
    Zr107   Zr   0.61238   0.72098   0.90003   1.000
    O108    O    0.66238   0.70962   0.89697   1.000
    O109    O    0.58130   0.68047   0.85149   1.000
    O110    O    0.61584   0.61015   0.89497   1.000
    O111    O    0.61142   0.67671   0.96475   1.000
    Zr112   Zr   0.74621   0.27871   0.89183   1.000
    O113    O    0.79082   0.31027   0.88944   1.000
    O114    O    0.74604   0.22835   0.84320   1.000
    O115    O    0.70791   0.32326   0.88899   1.000
    O116    O    0.74327   0.26957   0.95781   1.000
    Zr117   Zr   0.86237   0.22106   0.59991   1.000
    O118    O    0.86156   0.17676   0.53518   1.000
    O119    O    0.86585   0.11036   0.60506   1.000
    O120    O    0.91237   0.20965   0.60298   1.000
    O121    O    0.83128   0.18055   0.64850   1.000
    Zr122   Zr   0.11224   0.38588   0.09608   1.000
    O123    O    0.07482   0.37915   0.13795   1.000
    O124    O    0.15206   0.34611   0.10135   1.000
    O125    O    0.11568   0.45910   0.10138   1.000
    O126    O    0.11213   0.39033   0.02984   1.000
    Zr127   Zr   0.38993   0.27880   0.10021   1.000
    O128    O    0.42047   0.31918   0.14914   1.000
    O129    O    0.33962   0.29012   0.10314   1.000
    O130    O    0.39074   0.32305   0.03569   1.000
    O131    O    0.38612   0.38944   0.10535   1.000
    Zr132   Zr   0.88812   0.27882   0.09789   1.000
    O133    O    0.88509   0.38942   0.10401   1.000
    O134    O    0.91972   0.31880   0.14734   1.000
    O135    O    0.88918   0.32328   0.03394   1.000
    O136    O    0.83837   0.29047   0.10203   1.000
    Zr137   Zr   0.13977   0.11511   0.59590   1.000
    O138    O    0.13613   0.04181   0.60146   1.000
    O139    O    0.09977   0.15445   0.60119   1.000
    O140    O    0.13945   0.11056   0.52965   1.000
    O141    O    0.17724   0.12151   0.63787   1.000
    Zr142   Zr   0.25495   0.72005   0.10865   1.000
    O143    O    0.21021   0.68924   0.11074   1.000
    O144    O    0.25783   0.72973   0.04270   1.000
    O145    O    0.25533   0.77031   0.15727   1.000
    O146    O    0.29313   0.67546   0.11138   1.000
    Zr147   Zr   0.24673   0.10871   0.25800   1.000
    O148    O    0.24527   0.15523   0.20600   1.000
    O149    O    0.24773   0.03437   0.25718   1.000
    O150    O    0.20838   0.10721   0.29757   1.000
    O151    O    0.28453   0.11519   0.30040   1.000
    Zr152   Zr   0.61094   0.38488   0.09596   1.000
    O153    O    0.61451   0.45826   0.10127   1.000
    O154    O    0.65102   0.34563   0.10135   1.000
    O155    O    0.57366   0.37863   0.13803   1.000
    O156    O    0.61131   0.38925   0.02971   1.000
    Zr157   Zr   0.99641   0.77909   0.60824   1.000
    O158    O    0.99623   0.72873   0.65676   1.000
    O159    O    0.04099   0.81060   0.61070   1.000
    O160    O    0.99373   0.76971   0.54228   1.000
    O161    O    0.95806   0.82364   0.61102   1.000
    Zr162   Zr   0.88971   0.61494   0.90400   1.000
    O163    O    0.84973   0.65437   0.89874   1.000
    O164    O    0.88942   0.61038   0.97030   1.000
    O165    O    0.92715   0.62116   0.86194   1.000
    O166    O    0.88605   0.54164   0.89852   1.000
    Zr167   Zr   0.86204   0.88563   0.40400   1.000
    O168    O    0.86554   0.95885   0.39867   1.000
    O169    O    0.86202   0.89000   0.47023   1.000
    O170    O    0.90193   0.84594   0.39871   1.000
    O171    O    0.82465   0.87910   0.36199   1.000
    Zr172   Zr   0.00493   0.22004   0.39141   1.000
    O173    O    0.96020   0.18914   0.38930   1.000
    O174    O    0.00780   0.22973   0.45737   1.000
    O175    O    0.04312   0.17545   0.38874   1.000
    O176    O    0.00532   0.27034   0.34279   1.000
    Zr177   Zr   0.75379   0.88974   0.74148   1.000
    O178    O    0.71632   0.88310   0.69929   1.000
    O179    O    0.75567   0.84377   0.79373   1.000
    O180    O    0.75289   0.96428   0.74207   1.000
    O181    O    0.79229   0.89172   0.70204   1.000
    Zr182   Zr   0.24625   0.27966   0.89214   1.000
    O183    O    0.24339   0.26993   0.95790   1.000
    O184    O    0.24623   0.22948   0.84332   1.000
    O185    O    0.29114   0.31100   0.89037   1.000
    O186    O    0.20794   0.32418   0.88922   1.000
    Zr187   Zr   0.39022   0.61562   0.90438   1.000
    O188    O    0.35005   0.65471   0.89902   1.000
    O189    O    0.42736   0.62203   0.86240   1.000
    O190    O    0.38704   0.54194   0.89912   1.000
    O191    O    0.38974   0.61092   0.97065   1.000
loop_
    _geom_bond_atom_site_label_1
    _geom_bond_atom_site_label_2
    _geom_bond_distance
    _geom_bond_site_symmetry_2
    _ccdc_geom_bond_type
    Zr32   O33       1.52083      .   S
    N26    O33       2.76073  1_545   S
    Zr32   O34       1.03821      .   S
    N19    O34       2.06873      .   S
    Zr32   O35       1.14057      .   S
    N4     O35       2.27639      .   S
    Zr32   O36       1.11821      .   S
    N0     O36       2.20630      .   S
    Zr37   O38       1.12414      .   S
    N5     O38       2.21229      .   S
    Zr37   O39       1.52067      .   S
    N12    O39       2.76040  1_545   S
    Zr37   O40       1.03894      .   S
    N14    O40       2.07071  1_655   S
    Zr37   O41       1.13272      .   S
    N28    O41       2.26562      .   S
    Zr42   O43       1.00793      .   S
    N31    O43       2.16851      .   S
    Zr42   O44       1.00432      .   S
    N1     O44       2.16605      .   S
    Zr42   O45       0.98779      .   S
    N26    O45       2.11757      .   S
    Zr42   O46       1.01945      .   S
    N0     O46       2.19620  1_565   S
    Zr47   O48       1.11860      .   S
    N21    O48       2.20161      .   S
    Zr47   O49       1.04607      .   S
    N3     O49       2.08382      .   S
    Zr47   O50       1.52217      .   S
    N25    O50       2.76321  1_565   S
    Zr47   O51       1.13200      .   S
    N13    O51       2.26101      .   S
    Zr52   O53       0.98859      .   S
    N25    O53       2.12014      .   S
    Zr52   O54       1.00701      .   S
    N28    O54       2.16616      .   S
    Zr52   O55       1.02006      .   S
    N21    O55       2.19811  1_545   S
    Zr52   O56       1.00405      .   S
    N2     O56       2.16555      .   S
    Zr57   O58       1.02250      .   S
    N17    O58       2.20333      .   S
    Zr57   O59       1.00329      .   S
    N3     O59       2.16359      .   S
    Zr57   O60       1.00078      .   S
    N24    O60       2.15136      .   S
    Zr57   O61       0.98926      .   S
    N11    O61       2.12167      .   S
    Zr62   O63       1.00336      .   S
    N19    O63       2.16382      .   S
    Zr62   O64       0.98802      .   S
    N29    O64       2.11815      .   S
    Zr62   O65       1.01944      .   S
    N15    O65       2.19609      .   S
    Zr62   O66       1.00588      .   S
    N27    O66       2.16363      .   S
    Zr67   O68       0.99412      .   S
    N20    O68       2.13954  1_556   S
    Zr67   O69       1.00171      .   S
    N18    O69       2.15460      .   S
    Zr67   O70       1.01614      .   S
    N27    O70       2.18910      .   S
    Zr67   O71       1.00138      .   S
    N0     O71       2.15466      .   S
    Zr72   O73       0.99233      .   S
    N19    O73       2.13745      .   S
    Zr72   O74       0.99720      .   S
    N5     O74       2.14839      .   S
    Zr72   O75       1.00769      .   S
    N13    O75       2.16787  1_545   S
    Zr72   O76       0.98974      .   S
    N25    O76       2.12460      .   S
    Zr77   O78       1.00108      .   S
    N26    O78       2.15309      .   S
    Zr77   O79       0.99364      .   S
    N3     O79       2.13858      .   S
    Zr77   O80       1.00001      .   S
    N15    O80       2.15164      .   S
    Zr77   O81       1.01509      .   S
    N13    O81       2.18650      .   S
    Zr82   O83       1.11424      .   S
    N16    O83       2.19813      .   S
    Zr82   O84       1.04622      .   S
    N2     O84       2.08426      .   S
    Zr82   O85       1.52128      .   S
    N6     O85       2.76182      .   S
    Zr82   O86       1.14030      .   S
    N23    O86       2.27330  1_554   S
    Zr87   O88       0.99341      .   S
    N3     O88       2.13964      .   S
    Zr87   O89       1.01554      .   S
    N4     O89       2.18657  1_565   S
    Zr87   O90       0.99354      .   S
    N8     O90       2.13921      .   S
    Zr87   O91       0.99028      .   S
    N26    O91       2.12614      .   S
    Zr92   O93       0.98800      .   S
    N18    O93       2.11807      .   S
    Zr92   O94       1.00790  1_655   S
    N23    O94       2.16829      .   S
    Zr92   O95       1.00463      .   S
    N14    O95       2.16659      .   S
    Zr92   O96       1.02014      .   S
    N22    O96       2.19799      .   S
    Zr97   O98       1.00464      .   S
    N25    O98       2.16192      .   S
    Zr97   O99       1.01654      .   S
    N4     O99       2.19022      .   S
    Zr97   O100      1.00134      .   S
    N17    O100      2.15466      .   S
    Zr97   O101      0.99374      .   S
    N19    O101      2.13887      .   S
    Zr102  O103      0.98868      .   S
    N6     O103      2.12051      .   S
    Zr102  O104      1.00325      .   S
    N10    O104      2.16368      .   S
    Zr102  O105      1.00686  1_455   S
    N9     O105      2.16582      .   S
    Zr102  O106      1.01951      .   S
    N16    O106      2.19645      .   S
    Zr107  O108      1.04584      .   S
    N20    O108      2.08418      .   S
    Zr107  O109      1.11377      .   S
    N17    O109      2.19546      .   S
    Zr107  O110      1.52328      .   S
    N11    O110      2.76569      .   S
    Zr107  O111      1.14000      .   S
    N27    O111      2.27341  1_554   S
    Zr112  O113      1.01615      .   S
    N9     O113      2.18907      .   S
    Zr112  O114      1.00132      .   S
    N8     O114      2.15461      .   S
    Zr112  O115      1.00291      .   S
    N11    O115      2.15779      .   S
    Zr112  O116      0.99356      .   S
    N1     O116      2.13859  1_554   S
    Zr117  O118      1.14068      .   S
    N31    O118      2.27366      .   S
    Zr117  O119      1.52166      .   S
    N7     O119      2.76240  1_565   S
    Zr117  O120      1.04608      .   S
    N10    O120      2.08427  1_455   S
    Zr117  O121      1.11413      .   S
    N8     O121      2.19642      .   S
    Zr122  O123      0.99731      .   S
    N22    O123      2.14852  1_655   S
    Zr122  O124      0.99232      .   S
    N30    O124      2.13727      .   S
    Zr122  O125      1.00904      .   S
    N23    O125      2.17140      .   S
    Zr122  O126      0.98960      .   S
    N6     O126      2.12417  1_556   S
    Zr127  O128      1.11026      .   S
    N15    O128      2.18718      .   S
    Zr127  O129      1.05219      .   S
    N30    O129      2.09446      .   S
    Zr127  O130      1.13725      .   S
    N24    O130      2.26826  1_556   S
    Zr127  O131      1.52120      .   S
    N29    O131      2.76229      .   S
    Zr132  O133      1.52065      .   S
    N18    O133      2.76050      .   S
    Zr132  O134      1.12511      .   S
    N22    O134      2.21460      .   S
    Zr132  O135      1.13168      .   S
    N9     O135      2.26360  1_556   S
    Zr132  O136      1.04245      .   S
    N1     O136      2.07782      .   S
    Zr137  O138      1.01055      .   S
    N28    O138      2.17446  1_565   S
    Zr137  O139      0.99218      .   S
    N10    O139      2.13699      .   S
    Zr137  O140      0.98996      .   S
    N12    O140      2.12523      .   S
    Zr137  O141      0.99866      .   S
    N21    O141      2.15151      .   S
    Zr142  O143      1.01395      .   S
    N23    O143      2.18378      .   S
    Zr142  O144      0.99410      .   S
    N2     O144      2.13961  1_556   S
    Zr142  O145      1.00031      .   S
    N5     O145      2.15229      .   S
    Zr142  O146      1.00119      .   S
    N29    O146      2.15319      .   S
    Zr147  O148      1.00447      .   S
    N30    O148      2.16591      .   S
    Zr147  O149      1.01950      .   S
    N5     O149      2.19670  1_565   S
    Zr147  O150      0.98769      .   S
    N12    O150      2.11747      .   S
    Zr147  O151      1.00808      .   S
    N13    O151      2.16856      .   S
    Zr152  O153      1.01130      .   S
    N27    O153      2.17651      .   S
    Zr152  O154      0.99308      .   S
    N1     O154      2.13902      .   S
    Zr152  O155      0.99637      .   S
    N15    O155      2.14571      .   S
    Zr152  O156      0.98971      .   S
    N11    O156      2.12465  1_556   S
    Zr157  O158      0.99981      .   S
    N16    O158      2.15117  1_455   S
    Zr157  O159      1.01525  1_655   S
    N28    O159      2.18706      .   S
    Zr157  O160      0.99349      .   S
    N14    O160      2.13850      .   S
    Zr157  O161      1.00371      .   S
    N7     O161      2.15979      .   S
    Zr162  O163      0.99246      .   S
    N20    O163      2.13765      .   S
    Zr162  O164      0.99063      .   S
    N18    O164      2.12659  1_554   S
    Zr162  O165      0.99879      .   S
    N16    O165      2.15164  1_455   S
    Zr162  O166      1.01056      .   S
    N9     O166      2.17441      .   S
    Zr167  O168      1.00903      .   S
    N31    O168      2.17146  1_545   S
    Zr167  O169      0.98947      .   S
    N7     O169      2.12387      .   S
    Zr167  O170      0.99296      .   S
    N14    O170      2.13891      .   S
    Zr167  O171      0.99785      .   S
    N0     O171      2.14967      .   S
    Zr172  O173      1.01430  1_455   S
    N31    O173      2.18452      .   S
    Zr172  O174      0.99425      .   S
    N10    O174      2.13988      .   S
    Zr172  O175      1.00138      .   S
    N12    O175      2.15367      .   S
    Zr172  O176      1.00031      .   S
    N22    O176      2.15230  1_655   S
    Zr177  O178      1.00100      .   S
    N4     O178      2.15216      .   S
    Zr177  O179      1.00294      .   S
    N20    O179      2.16282      .   S
    Zr177  O180      1.02215      .   S
    N8     O180      2.20270  1_545   S
    Zr177  O181      0.98928      .   S
    N7     O181      2.12166      .   S
    Zr182  O183      0.99127      .   S
    N30    O183      2.13306  1_554   S
    Zr182  O184      1.00186      .   S
    N21    O184      2.15613      .   S
    Zr182  O185      1.01978      .   S
    N24    O185      2.19798      .   S
    Zr182  O186      1.00288      .   S
    N6     O186      2.15789      .   S
    Zr187  O188      0.99325      .   S
    N2     O188      2.13932      .   S
    Zr187  O189      0.99353      .   S
    N17    O189      2.13918      .   S
    Zr187  O190      1.01490      .   S
    N24    O190      2.18492      .   S
    Zr187  O191      0.99031      .   S
    N29    O191      2.12610  1_554   S
