# CIF file generated by openbabel 2.4.90, see http://openbabel.sf.net
data_I
_chemical_name_common ''
_cell_length_a 20.649
_cell_length_b 13.709
_cell_length_c 14.912
_cell_angle_alpha 89.983
_cell_angle_beta 90
_cell_angle_gamma 90.33
_space_group_name_H-M_alt 'P 1'
_space_group_name_Hall 'P 1'
loop_
    _symmetry_equiv_pos_as_xyz
    x,y,z
loop_
    _atom_site_label
    _atom_site_type_symbol
    _atom_site_fract_x
    _atom_site_fract_y
    _atom_site_fract_z
    _atom_site_occupancy
    Zr0     Zr   0.11948   0.66002   0.89414   1.000
    Zr1     Zr   0.61950   0.65958   0.89408   1.000
    Zr2     Zr   0.11224   0.38588   0.09608   1.000
    Zr3     Zr   0.61094   0.38488   0.09596   1.000
    Zr4     Zr   0.25495   0.72005   0.10865   1.000
    Zr5     Zr   0.75479   0.71983   0.10852   1.000
    Zr6     Zr   0.00417   0.39040   0.75796   1.000
    Zr7     Zr   0.50365   0.38969   0.75860   1.000
    Zr8     Zr   0.13173   0.84028   0.39463   1.000
    Zr9     Zr   0.63151   0.84047   0.39398   1.000
    Zr10    Zr   0.13977   0.11511   0.59590   1.000
    Zr11    Zr   0.64012   0.11564   0.59581   1.000
    Zr12    Zr   0.49642   0.77914   0.60847   1.000
    Zr13    Zr   0.99641   0.77909   0.60824   1.000
    Zr14    Zr   0.24673   0.10871   0.25800   1.000
    Zr15    Zr   0.74680   0.10915   0.25808   1.000
    Zr16    Zr   0.38245   0.34006   0.10640   1.000
    Zr17    Zr   0.88154   0.34016   0.10552   1.000
    Zr18    Zr   0.39022   0.61562   0.90438   1.000
    Zr19    Zr   0.88971   0.61494   0.90400   1.000
    Zr20    Zr   0.24625   0.27966   0.89214   1.000
    Zr21    Zr   0.74621   0.27871   0.89183   1.000
    Zr22    Zr   0.49689   0.60935   0.24206   1.000
    Zr23    Zr   0.99684   0.60891   0.24194   1.000
    Zr24    Zr   0.36939   0.16003   0.60522   1.000
    Zr25    Zr   0.86949   0.15969   0.60586   1.000
    Zr26    Zr   0.36209   0.88538   0.40406   1.000
    Zr27    Zr   0.86204   0.88563   0.40400   1.000
    Zr28    Zr   0.00493   0.22004   0.39141   1.000
    Zr29    Zr   0.50490   0.22011   0.39159   1.000
    Zr30    Zr   0.25422   0.89110   0.74239   1.000
    Zr31    Zr   0.75379   0.88974   0.74148   1.000
    Zr32    Zr   0.10529   0.78278   0.90613   1.000
    Zr33    Zr   0.60527   0.78237   0.90598   1.000
    Zr34    Zr   0.14475   0.71752   0.40976   1.000
    Zr35    Zr   0.64471   0.71738   0.40606   1.000
    Zr36    Zr   0.39742   0.21755   0.09401   1.000
    Zr37    Zr   0.89471   0.21748   0.09026   1.000
    Zr38    Zr   0.35529   0.28246   0.59011   1.000
    Zr39    Zr   0.85525   0.28243   0.59396   1.000
    O40     O    0.88812   0.27882   0.09789   1.000
    O41     O    0.38993   0.27880   0.10021   1.000
    O42     O    0.63811   0.77893   0.40002   1.000
    O43     O    0.13824   0.77890   0.40220   1.000
    O44     O    0.36234   0.22125   0.59767   1.000
    O45     O    0.86237   0.22106   0.59991   1.000
    O46     O    0.61238   0.72098   0.90003   1.000
    O47     O    0.11238   0.72140   0.90014   1.000
    N48     N    0.74804   0.87481   0.26443   1.000
    O49     O    0.74884   0.96048   0.25616   1.000
    O50     O    0.78727   0.87257   0.31997   1.000
    O51     O    0.75561   0.82079   0.20556   1.000
    O52     O    0.70123   0.85936   0.30274   1.000
    N53     N    0.73915   0.26438   0.10103   1.000
    O54     O    0.78862   0.30211   0.10617   1.000
    O55     O    0.74033   0.26043   0.02378   1.000
    O56     O    0.69111   0.30638   0.10675   1.000
    O57     O    0.74352   0.20234   0.15423   1.000
    N58     N    0.26190   0.73595   0.89944   1.000
    O59     O    0.25771   0.79806   0.84629   1.000
    O60     O    0.26071   0.73940   0.97674   1.000
    O61     O    0.21237   0.69837   0.89400   1.000
    O62     O    0.30989   0.69381   0.89366   1.000
    N63     N    0.51181   0.23605   0.60069   1.000
    O64     O    0.50749   0.29777   0.65407   1.000
    O65     O    0.55978   0.19386   0.60649   1.000
    O66     O    0.46226   0.19846   0.60592   1.000
    O67     O    0.51064   0.23950   0.52342   1.000
    N68     N    0.63603   0.88257   0.60726   1.000
    O69     O    0.58571   0.84223   0.61303   1.000
    O70     O    0.63350   0.96825   0.60685   1.000
    O71     O    0.67885   0.87646   0.65710   1.000
    O72     O    0.64052   0.86710   0.52970   1.000
    N73     N    0.24803   0.87435   0.26481   1.000
    O74     O    0.25571   0.82056   0.20589   1.000
    O75     O    0.28727   0.87227   0.32026   1.000
    O76     O    0.20131   0.85878   0.30325   1.000
    O77     O    0.24873   0.96003   0.25635   1.000
    N78     N    0.12046   0.40954   0.88895   1.000
    O79     O    0.11926   0.50006   0.88974   1.000
    O80     O    0.08084   0.39407   0.83736   1.000
    O81     O    0.11203   0.39478   0.96361   1.000
    O82     O    0.16962   0.36869   0.88631   1.000
    N83     N    0.87053   0.90912   0.61108   1.000
    O84     O    0.91971   0.86819   0.61380   1.000
    O85     O    0.83080   0.89370   0.66259   1.000
    O86     O    0.86933   0.99965   0.61021   1.000
    O87     O    0.86200   0.89436   0.53646   1.000
    N88     N    0.75338   0.12478   0.73508   1.000
    O89     O    0.74587   0.17800   0.79457   1.000
    O90     O    0.75199   0.03882   0.74266   1.000
    O91     O    0.71446   0.12843   0.67969   1.000
    O92     O    0.80019   0.14004   0.69709   1.000
    N93     N    0.88540   0.38316   0.89257   1.000
    O94     O    0.89023   0.36773   0.97000   1.000
    O95     O    0.88239   0.46834   0.89303   1.000
    O96     O    0.92857   0.37770   0.84254   1.000
    O97     O    0.83543   0.34183   0.88705   1.000
    N98     N    0.01187   0.23598   0.60064   1.000
    O99     O    0.05977   0.19380   0.60649   1.000
    O100    O    0.00764   0.29788   0.65386   1.000
    O101    O    0.96237   0.19825   0.60605   1.000
    O102    O    0.01067   0.23941   0.52333   1.000
    N103    N    0.62046   0.40868   0.88891   1.000
    O104    O    0.61167   0.39361   0.96346   1.000
    O105    O    0.61929   0.49933   0.88990   1.000
    O106    O    0.58071   0.39347   0.83739   1.000
    O107    O    0.66961   0.36782   0.88615   1.000
    N108    N    0.13055   0.09055   0.38886   1.000
    O109    O    0.17003   0.10572   0.33714   1.000
    O110    O    0.13213   0.00011   0.39001   1.000
    O111    O    0.08131   0.13086   0.38607   1.000
    O112    O    0.13914   0.10601   0.46340   1.000
    N113    N    0.36564   0.11650   0.39279   1.000
    O114    O    0.41548   0.15793   0.38717   1.000
    O115    O    0.32233   0.12167   0.34281   1.000
    O116    O    0.36068   0.13177   0.47009   1.000
    O117    O    0.36916   0.03159   0.39311   1.000
    N118    N    0.98981   0.76411   0.39907   1.000
    O119    O    0.99105   0.76033   0.47632   1.000
    O120    O    0.99401   0.70208   0.34584   1.000
    O121    O    0.94182   0.80626   0.39341   1.000
    O122    O    0.03906   0.80206   0.39385   1.000
    N123    N    0.49757   0.37501   0.23599   1.000
    O124    O    0.53637   0.37238   0.18010   1.000
    O125    O    0.49866   0.46068   0.24409   1.000
    O126    O    0.50546   0.32102   0.29470   1.000
    O127    O    0.45101   0.35955   0.19807   1.000
    N128    N    0.00383   0.62478   0.76428   1.000
    O129    O    0.96460   0.62739   0.81989   1.000
    O130    O    0.00285   0.53910   0.75613   1.000
    O131    O    0.05041   0.64056   0.80259   1.000
    O132    O    0.99605   0.67838   0.70528   1.000
    N133    N    0.50340   0.62480   0.76499   1.000
    O134    O    0.50194   0.53882   0.75742   1.000
    O135    O    0.55021   0.63997   0.80294   1.000
    O136    O    0.46450   0.62844   0.82041   1.000
    O137    O    0.49597   0.67817   0.70556   1.000
    N138    N    0.88055   0.59047   0.11121   1.000
    O139    O    0.83129   0.63080   0.11395   1.000
    O140    O    0.88205   0.50002   0.11013   1.000
    O141    O    0.92006   0.60573   0.16288   1.000
    O142    O    0.88914   0.60583   0.03660   1.000
    N143    N    0.48981   0.76402   0.39927   1.000
    O144    O    0.53893   0.80218   0.39380   1.000
    O145    O    0.49407   0.70214   0.34603   1.000
    O146    O    0.44178   0.80593   0.39360   1.000
    O147    O    0.49113   0.76028   0.47653   1.000
    N148    N    0.76186   0.73605   0.89934   1.000
    O149    O    0.75755   0.79779   0.84598   1.000
    O150    O    0.76061   0.73939   0.97664   1.000
    O151    O    0.80976   0.69381   0.89349   1.000
    O152    O    0.71237   0.69826   0.89391   1.000
    N153    N    0.25402   0.12562   0.73536   1.000
    O154    O    0.24620   0.17929   0.79449   1.000
    O155    O    0.30050   0.14125   0.69688   1.000
    O156    O    0.21471   0.12792   0.67984   1.000
    O157    O    0.25301   0.03989   0.74379   1.000
    N158    N    0.99810   0.37441   0.23522   1.000
    O159    O    0.99880   0.46014   0.24360   1.000
    O160    O    0.95132   0.35877   0.19679   1.000
    O161    O    0.03740   0.37242   0.17983   1.000
    O162    O    0.00572   0.32063   0.29418   1.000
    N163    N    0.11560   0.61737   0.10697   1.000
    O164    O    0.11912   0.53232   0.10668   1.000
    O165    O    0.07231   0.62227   0.15699   1.000
    O166    O    0.16548   0.65843   0.11283   1.000
    O167    O    0.11074   0.63275   0.02956   1.000
    N168    N    0.38660   0.38266   0.89391   1.000
    O169    O    0.42904   0.37643   0.84351   1.000
    O170    O    0.38385   0.46826   0.89387   1.000
    O171    O    0.33604   0.34233   0.88859   1.000
    O172    O    0.39154   0.36730   0.97117   1.000
    N173    N    0.37042   0.90932   0.61118   1.000
    O174    O    0.41961   0.86826   0.61392   1.000
    O175    O    0.36193   0.89456   0.53653   1.000
    O176    O    0.36927   0.99990   0.61019   1.000
    O177    O    0.33082   0.89415   0.66286   1.000
    N178    N    0.63051   0.09072   0.38875   1.000
    O179    O    0.63921   0.10632   0.46328   1.000
    O180    O    0.63205   0.00028   0.38977   1.000
    O181    O    0.58127   0.13100   0.38606   1.000
    O182    O    0.67001   0.10592   0.33708   1.000
    N183    N    0.61510   0.61691   0.10686   1.000
    O184    O    0.61045   0.63243   0.02947   1.000
    O185    O    0.61807   0.53164   0.10657   1.000
    O186    O    0.57204   0.62231   0.15695   1.000
    O187    O    0.66525   0.65768   0.11271   1.000
    N188    N    0.13551   0.88334   0.60765   1.000
    O189    O    0.17865   0.87806   0.65776   1.000
    O190    O    0.08556   0.84211   0.61317   1.000
    O191    O    0.13249   0.96852   0.60702   1.000
    O192    O    0.14036   0.86779   0.53022   1.000
    N193    N    0.38055   0.59060   0.11144   1.000
    O194    O    0.33131   0.63087   0.11412   1.000
    O195    O    0.38927   0.60622   0.03692   1.000
    O196    O    0.38231   0.50008   0.11049   1.000
    O197    O    0.42005   0.60592   0.16310   1.000
    N198    N    0.23963   0.26375   0.10073   1.000
    O199    O    0.24382   0.20175   0.15399   1.000
    O200    O    0.28931   0.30144   0.10607   1.000
    O201    O    0.24054   0.26019   0.02365   1.000
    O202    O    0.19189   0.30635   0.10663   1.000
    N203    N    0.86559   0.11713   0.39304   1.000
    O204    O    0.91548   0.15824   0.38720   1.000
    O205    O    0.86074   0.13246   0.47045   1.000
    O206    O    0.86905   0.03207   0.39334   1.000
    O207    O    0.82230   0.12219   0.34302   1.000
loop_
    _geom_bond_atom_site_label_1
    _geom_bond_atom_site_label_2
    _geom_bond_distance
    _geom_bond_site_symmetry_2
    _ccdc_geom_bond_type
    Zr37   O40       0.86024      .   S
    Zr17   O40       0.86024      .   S
    Zr36   O41       0.85969      .   S
    Zr16   O41       0.85969      .   S
    Zr9    O42       0.86015      .   S
    Zr35   O42       0.86015      .   S
    Zr8    O43       0.86033      .   S
    Zr34   O43       0.86033      .   S
    Zr38   O44       0.85994      .   S
    Zr24   O44       0.85994      .   S
    Zr39   O45       0.85943      .   S
    Zr25   O45       0.85943      .   S
    Zr1    O46       0.85989      .   S
    Zr33   O46       0.85989      .   S
    Zr0    O47       0.85964      .   S
    Zr32   O47       0.85964      .   S
    N48    O49       1.18092      .   S
    Zr15   O49       2.03891  1_545   S
    N48    O50       1.15894      .   S
    Zr27   O50       1.99570      .   S
    N48    O51       1.15982      .   S
    Zr5    O51       2.00277      .   S
    N48    O52       1.14158      .   S
    Zr9    O52       1.99664      .   S
    N53    O54       1.14488      .   S
    Zr17   O54       1.98546      .   S
    N53    O55       1.15347      .   S
    Zr21   O55       1.98712  1_556   S
    N53    O56       1.15302      .   S
    Zr3    O56       1.98616      .   S
    N53    O57       1.16682      .   S
    Zr15   O57       2.00864      .   S
    N58    O59       1.16663      .   S
    Zr30   O59       2.00810      .   S
    N58    O60       1.15405      .   S
    Zr4    O60       1.98819  1_554   S
    N58    O61       1.14548      .   S
    Zr0    O61       1.98596      .   S
    N58    O62       1.15305      .   S
    Zr18   O62       1.98651      .   S
    N63    O64       1.16564      .   S
    Zr7    O64       2.00658      .   S
    N63    O65       1.15319      .   S
    Zr11   O65       1.98682      .   S
    N63    O66       1.14544      .   S
    Zr24   O66       1.98580      .   S
    N63    O67       1.15353      .   S
    Zr29   O67       1.98727      .   S
    N68    O69       1.17747      .   S
    Zr12   O69       2.03309      .   S
    N68    O70       1.17601      .   S
    Zr11   O70       2.03107  1_545   S
    N68    O71       1.15839      .   S
    Zr31   O71       2.00200      .   S
    N68    O72       1.17966      .   S
    Zr9    O72       2.06480      .   S
    N73    O74       1.15861      .   S
    Zr4    O74       2.00062      .   S
    N73    O75       1.15825      .   S
    Zr26   O75       1.99441      .   S
    N73    O76       1.14128      .   S
    Zr8    O76       1.99526      .   S
    N73    O77       1.18135      .   S
    Zr14   O77       2.03901  1_545   S
    N78    O79       1.24137      .   S
    Zr0    O79       2.19393      .   S
    N78    O80       1.14208      .   S
    Zr6    O80       1.97735      .   S
    N78    O81       1.14455      .   S
    Zr2    O81       1.97919  1_554   S
    N78    O82       1.16284      .   S
    Zr20   O82       2.00575      .   S
    N83    O84       1.16382      .   S
    Zr13   O84       2.00741      .   S
    N83    O85       1.14258      .   S
    Zr31   O85       1.97856      .   S
    N83    O86       1.24154      .   S
    Zr25   O86       2.19491  1_545   S
    N83    O87       1.14445      .   S
    Zr27   O87       1.97894      .   S
    N88    O89       1.15974      .   S
    Zr21   O89       2.00263      .   S
    N88    O90       1.18402      .   S
    Zr31   O90       2.04430  1_565   S
    N88    O91       1.15380      .   S
    Zr11   O91       1.98708      .   S
    N88    O92       1.13866      .   S
    Zr25   O92       1.99162      .   S
    N93    O94       1.17804      .   S
    Zr17   O94       2.06345  1_554   S
    N93    O95       1.16981      .   S
    Zr19   O95       2.02113      .   S
    N93    O96       1.16516      .   S
    Zr6    O96       2.01373  1_455   S
    N93    O97       1.17703      .   S
    Zr21   O97       2.03229      .   S
    N98    O99       1.15189      .   S
    Zr10   O99       1.98435      .   S
    N98    O100      1.16567      .   S
    Zr6    O100      2.00649      .   S
    N98    O101      1.14574  1_455   S
    Zr25   O101      1.98638      .   S
    N98    O102      1.15415      .   S
    Zr28   O102      1.98850      .   S
    N103   O104      1.14496      .   S
    Zr3    O104      1.97942  1_554   S
    N103   O105      1.24315      .   S
    Zr1    O105      2.19778      .   S
    N103   O106      1.14253      .   S
    Zr7    O106      1.97853      .   S
    N103   O107      1.16277      .   S
    Zr21   O107      2.00581      .   S
    N108   O109      1.14040      .   S
    Zr14   O109      1.97539      .   S
    N108   O110      1.24053      .   S
    Zr8    O110      2.19215  1_565   S
    N108   O111      1.16076      .   S
    Zr28   O111      2.00275      .   S
    N108   O112      1.14524      .   S
    Zr10   O112      1.97992      .   S
    N113   O114      1.17576      .   S
    Zr29   O114      2.03019      .   S
    N113   O115      1.16653      .   S
    Zr14   O115      2.01617      .   S
    N113   O116      1.17616      .   S
    Zr24   O116      2.05974      .   S
    N113   O117      1.16672      .   S
    Zr26   O117      2.01538  1_565   S
    N118   O119      1.15345      .   S
    Zr13   O119      1.98698      .   S
    N118   O120      1.16710      .   S
    Zr23   O120      2.00926      .   S
    N118   O121      1.15300      .   S
    Zr27   O121      1.98592      .   S
    N118   O122      1.14230  1_655   S
    Zr8    O122      1.98097      .   S
    N123   O124      1.15693      .   S
    Zr3    O124      1.99273      .   S
    N123   O125      1.18079      .   S
    Zr22   O125      2.03889      .   S
    N123   O126      1.15843      .   S
    Zr29   O126      2.00003      .   S
    N123   O127      1.13416      .   S
    Zr16   O127      1.98502      .   S
    N128   O129      1.16004  1_455   S
    Zr19   O129      1.99759      .   S
    N128   O130      1.18090      .   S
    Zr6    O130      2.03902      .   S
    N128   O131      1.13842      .   S
    Zr0    O131      1.99115      .   S
    N128   O132      1.15796  1_455   S
    Zr13   O132      1.99963      .   S
    N133   O134      1.18431      .   S
    Zr7    O134      2.04499      .   S
    N133   O135      1.13829      .   S
    Zr1    O135      1.99051      .   S
    N133   O136      1.15379      .   S
    Zr18   O136      1.98706      .   S
    N133   O137      1.15977      .   S
    Zr12   O137      2.00268      .   S
    N138   O139      1.16122      .   S
    Zr5    O139      2.00342      .   S
    N138   O140      1.24070      .   S
    Zr17   O140      2.19256      .   S
    N138   O141      1.14069      .   S
    Zr23   O141      1.97600      .   S
    N138   O142      1.14586      .   S
    Zr19   O142      1.98126  1_556   S
    N143   O144      1.14154      .   S
    Zr9    O144      1.97937      .   S
    N143   O145      1.16569      .   S
    Zr22   O145      2.00673      .   S
    N143   O146      1.15222      .   S
    Zr26   O146      1.98467      .   S
    N143   O147      1.15354      .   S
    Zr12   O147      1.98747      .   S
    N148   O149      1.16525      .   S
    Zr31   O149      2.00589      .   S
    N148   O150      1.15397      .   S
    Zr5    O150      1.98824  1_554   S
    N148   O151      1.15225      .   S
    Zr19   O151      1.98491      .   S
    N148   O152      1.14593      .   S
    Zr1    O152      1.98662      .   S
    N153   O154      1.16054      .   S
    Zr20   O154      2.00371      .   S
    N153   O155      1.13758      .   S
    Zr24   O155      1.98839      .   S
    N153   O156      1.15993      .   S
    Zr10   O156      1.99731      .   S
    N153   O157      1.18203      .   S
    Zr30   O157      2.04012  1_565   S
    N158   O159      1.18195      .   S
    Zr23   O159      2.04027      .   S
    N158   O160      1.14250      .   S
    Zr17   O160      1.99738      .   S
    N158   O161      1.15830  1_655   S
    Zr2    O161      1.99463      .   S
    N158   O162      1.15862  1_655   S
    Zr28   O162      2.00061      .   S
    N163   O164      1.16865      .   S
    Zr2    O164      2.01807      .   S
    N163   O165      1.16640      .   S
    Zr23   O165      2.01579  1_655   S
    N163   O166      1.17424      .   S
    Zr4    O166      2.02790      .   S
    N163   O167      1.17768      .   S
    Zr0    O167      2.06131  1_556   S
    N168   O169      1.15798      .   S
    Zr7    O169      2.00156      .   S
    N168   O170      1.17516      .   S
    Zr18   O170      2.02979      .   S
    N168   O171      1.18135      .   S
    Zr20   O171      2.03956      .   S
    N168   O172      1.17574      .   S
    Zr16   O172      2.05910  1_554   S
    N173   O174      1.16485      .   S
    Zr12   O174      2.00928      .   S
    N173   O175      1.14477      .   S
    Zr26   O175      1.97947      .   S
    N173   O176      1.24215      .   S
    Zr24   O176      2.19648  1_545   S
    N173   O177      1.14184      .   S
    Zr30   O177      1.97717      .   S
    N178   O179      1.14576      .   S
    Zr11   O179      1.98055      .   S
    N178   O180      1.24047      .   S
    Zr9    O180      2.19169  1_565   S
    N178   O181      1.16050      .   S
    Zr29   O181      2.00215      .   S
    N178   O182      1.14034      .   S
    Zr15   O182      1.97559      .   S
    N183   O184      1.17753      .   S
    Zr1    O184      2.06105  1_556   S
    N183   O185      1.17098      .   S
    Zr3    O185      2.02260      .   S
    N183   O186      1.16403      .   S
    Zr22   O186      2.01177      .   S
    N183   O187      1.17706      .   S
    Zr5    O187      2.03229      .   S
    N188   O189      1.16538      .   S
    Zr30   O189      2.01403      .   S
    N188   O190      1.17595      .   S
    Zr13   O190      2.03051  1_655   S
    N188   O191      1.16982      .   S
    Zr10   O191      2.02110  1_545   S
    N188   O192      1.17863      .   S
    Zr8    O192      2.06435      .   S
    N193   O194      1.16050      .   S
    Zr4    O194      2.00238      .   S
    N193   O195      1.14567      .   S
    Zr18   O195      1.98062  1_556   S
    N193   O196      1.24178      .   S
    Zr16   O196      2.19467      .   S
    N193   O197      1.14071      .   S
    Zr22   O197      1.97605      .   S
    N198   O199      1.16660      .   S
    Zr14   O199      2.00894      .   S
    N198   O200      1.14878      .   S
    Zr16   O200      1.99185      .   S
    N198   O201      1.15065      .   S
    Zr20   O201      1.98254  1_556   S
    N198   O202      1.15209      .   S
    Zr2    O202      1.98464      .   S
    N203   O204      1.17460      .   S
    Zr28   O204      2.02860  1_455   S
    N203   O205      1.17766      .   S
    Zr25   O205      2.06139      .   S
    N203   O206      1.16874      .   S
    Zr27   O206      2.01806  1_565   S
    N203   O207      1.16657      .   S
    Zr15   O207      2.01586      .   S
