# CIF file generated by openbabel 2.4.90, see http://openbabel.sf.net
data_I
_chemical_name_common ''
_cell_length_a 15.411
_cell_length_b 15.42
_cell_length_c 15.411
_cell_angle_alpha 60.015
_cell_angle_beta 60.035
_cell_angle_gamma 60.048
_space_group_name_H-M_alt 'P 1'
_space_group_name_Hall 'P 1'
loop_
    _symmetry_equiv_pos_as_xyz
    x,y,z
loop_
    _atom_site_label
    _atom_site_type_symbol
    _atom_site_fract_x
    _atom_site_fract_y
    _atom_site_fract_z
    _atom_site_occupancy
    Lv0     Lv   0.99989   0.00016   0.63202   1.000
    Lv1     Lv   0.00012   0.99984   0.36800   1.000
    Lv2     Lv   0.99990   0.36814   0.63209   1.000
    Lv3     Lv   0.00000   0.63182   0.00027   1.000
    Lv4     Lv   0.36803   0.63184   0.00020   1.000
    Lv5     Lv   0.62017   0.99994   0.34533   1.000
    Lv6     Lv   0.36805   0.99994   0.99991   1.000
    Lv7     Lv   0.00000   0.36818   0.99972   1.000
    Lv8     Lv   0.00011   0.63186   0.36792   1.000
    Lv9     Lv   0.36808   0.00010   0.63202   1.000
    Lv10    Lv   0.66733   0.00008   0.00011   1.000
    Lv11    Lv   0.63199   0.36817   0.99979   1.000
