# CIF file generated by openbabel 2.4.90, see http://openbabel.sf.net
data_I
_chemical_name_common ''
_cell_length_a 15.411
_cell_length_b 15.42
_cell_length_c 15.411
_cell_angle_alpha 60.015
_cell_angle_beta 60.035
_cell_angle_gamma 60.048
_space_group_name_H-M_alt 'P 1'
_space_group_name_Hall 'P 1'
loop_
    _symmetry_equiv_pos_as_xyz
    x,y,z
loop_
    _atom_site_label
    _atom_site_type_symbol
    _atom_site_fract_x
    _atom_site_fract_y
    _atom_site_fract_z
    _atom_site_occupancy
    H0      H    0.99987   0.33282   0.66749   1.000
    H1      H    0.33269   0.99992   0.99988   1.000
    H2      H    0.00014   0.66718   0.33252   1.000
    H3      H    0.00002   0.66714   0.00034   1.000
    H4      H    0.33273   0.00012   0.66740   1.000
    H5      H    0.66729   0.99987   0.33262   1.000
    H6      H    0.99998   0.33287   0.99965   1.000
    H7      H    0.00014   0.99980   0.33262   1.000
    H8      H    0.33266   0.66716   0.00025   1.000
    H9      H    0.66736   0.33285   0.99974   1.000
    H10     H    0.99987   0.00020   0.66740   1.000
    C11     C    0.99993   0.40347   0.59669   1.000
    C12     C    0.40340   0.99996   0.99993   1.000
    C13     C    0.59661   0.00004   0.30000   1.000
    C14     C    0.00007   0.59653   0.40332   1.000
    C15     C    0.99998   0.59651   0.00020   1.000
    C16     C    0.40343   0.00007   0.59665   1.000
    C17     C    0.59659   0.99993   0.40337   1.000
    C18     C    0.00002   0.40350   0.99979   1.000
    C19     C    0.00009   0.99987   0.40337   1.000
    C20     C    0.40340   0.59652   0.00014   1.000
    C21     C    0.59662   0.40349   0.99985   1.000
    C22     C    0.99991   0.00012   0.59665   1.000
loop_
    _geom_bond_atom_site_label_1
    _geom_bond_atom_site_label_2
    _geom_bond_distance
    _geom_bond_site_symmetry_2
    _ccdc_geom_bond_type
    C20    H8        1.09052      .   S
    C15    H3        1.09051  1_655   S
    H2     C14       1.09052      .   S
    H7     C19       1.09056      .   S
    H5     C17       1.09051      .   S
    C17    C13       1.59202  1_565   S
    C16    H4        1.09052      .   S
    C22    H10       1.09056      .   S
    C11    H0        1.09053      .   S
    H6     C18       1.09051  1_655   S
    H9     C21       1.09053      .   S
    H1     C12       1.09053      .   S
