# CIF file generated by openbabel 2.4.90, see http://openbabel.sf.net
data_I
_chemical_name_common ''
_cell_length_a 15.411
_cell_length_b 15.42
_cell_length_c 15.411
_cell_angle_alpha 60.015
_cell_angle_beta 60.035
_cell_angle_gamma 60.048
_space_group_name_H-M_alt 'P 1'
_space_group_name_Hall 'P 1'
loop_
    _symmetry_equiv_pos_as_xyz
    x,y,z
loop_
    _atom_site_label
    _atom_site_type_symbol
    _atom_site_fract_x
    _atom_site_fract_y
    _atom_site_fract_z
    _atom_site_occupancy
    Zr0     Zr   0.15415   0.15425   0.53762   1.000
    Zr1     Zr   0.15414   0.15419   0.15404   1.000
    Zr2     Zr   0.53755   0.15428   0.15411   1.000
    Zr3     Zr   0.15428   0.53739   0.15422   1.000
    Zr4     Zr   0.84588   0.84575   0.46240   1.000
    Zr5     Zr   0.84588   0.84581   0.84597   1.000
    Zr6     Zr   0.84575   0.46261   0.84580   1.000
    Zr7     Zr   0.46248   0.84572   0.84591   1.000
    Zr8     Zr   0.25003   0.24999   0.25002   1.000
    Zr9     Zr   0.75000   0.75001   0.75000   1.000
    Zr10    Zr   0.05341   0.40003   0.49327   1.000
    Zr11    Zr   0.40003   0.05338   0.05334   1.000
    Zr12    Zr   0.49319   0.05342   0.05339   1.000
    Zr13    Zr   0.05347   0.49312   0.40006   1.000
    Zr14    Zr   0.05342   0.49308   0.05348   1.000
    Zr15    Zr   0.40003   0.05351   0.49320   1.000
    Zr16    Zr   0.49315   0.05342   0.40002   1.000
    Zr17    Zr   0.05341   0.40002   0.05333   1.000
    Zr18    Zr   0.05345   0.05335   0.40001   1.000
    Zr19    Zr   0.40007   0.49310   0.05351   1.000
    Zr20    Zr   0.49320   0.40004   0.05338   1.000
    Zr21    Zr   0.05338   0.05345   0.49319   1.000
    Zr22    Zr   0.60000   0.94649   0.50682   1.000
    Zr23    Zr   0.94661   0.59998   0.94668   1.000
    Zr24    Zr   0.94661   0.50692   0.94654   1.000
    Zr25    Zr   0.50687   0.94658   0.59999   1.000
    Zr26    Zr   0.50684   0.94658   0.94663   1.000
    Zr27    Zr   0.94661   0.59997   0.50674   1.000
    Zr28    Zr   0.94655   0.50688   0.59995   1.000
    Zr29    Zr   0.60000   0.94662   0.94660   1.000
    Zr30    Zr   0.94657   0.94665   0.60001   1.000
    Zr31    Zr   0.50682   0.59996   0.94660   1.000
    Zr32    Zr   0.59996   0.50690   0.94651   1.000
    Zr33    Zr   0.94665   0.94655   0.50682   1.000
    Zr34    Zr   0.11388   0.31454   0.45788   1.000
    Zr35    Zr   0.31453   0.11386   0.11376   1.000
    Zr36    Zr   0.45777   0.11391   0.11382   1.000
    Zr37    Zr   0.11397   0.45767   0.31450   1.000
    Zr38    Zr   0.11392   0.45759   0.11400   1.000
    Zr39    Zr   0.31451   0.11405   0.45775   1.000
    Zr40    Zr   0.45770   0.11394   0.31449   1.000
    Zr41    Zr   0.11392   0.31450   0.11370   1.000
    Zr42    Zr   0.11396   0.11381   0.31448   1.000
    Zr43    Zr   0.31457   0.45762   0.11405   1.000
    Zr44    Zr   0.45776   0.31453   0.11387   1.000
    Zr45    Zr   0.11385   0.11396   0.45775   1.000
    Zr46    Zr   0.68552   0.88595   0.54226   1.000
    Zr47    Zr   0.88611   0.68550   0.88624   1.000
    Zr48    Zr   0.88611   0.54241   0.88601   1.000
    Zr49    Zr   0.54233   0.88606   0.68552   1.000
    Zr50    Zr   0.54226   0.88609   0.88619   1.000
    Zr51    Zr   0.88614   0.68546   0.54213   1.000
    Zr52    Zr   0.88606   0.54233   0.68544   1.000
    Zr53    Zr   0.68549   0.88614   0.88626   1.000
    Zr54    Zr   0.88606   0.88619   0.68554   1.000
    Zr55    Zr   0.54226   0.68547   0.88610   1.000
    Zr56    Zr   0.68546   0.54238   0.88596   1.000
    Zr57    Zr   0.88618   0.88604   0.54226   1.000
    Zr58    Zr   0.14835   0.35172   0.35184   1.000
    Zr59    Zr   0.35176   0.14827   0.14819   1.000
    Zr60    Zr   0.14832   0.35164   0.14830   1.000
    Zr61    Zr   0.35170   0.14842   0.35171   1.000
    Zr62    Zr   0.14831   0.14830   0.35171   1.000
    Zr63    Zr   0.35176   0.35166   0.14830   1.000
    Zr64    Zr   0.64833   0.85158   0.64830   1.000
    Zr65    Zr   0.85170   0.64836   0.85171   1.000
    Zr66    Zr   0.64826   0.85173   0.85183   1.000
    Zr67    Zr   0.85167   0.64828   0.64818   1.000
    Zr68    Zr   0.85172   0.85170   0.64830   1.000
    Zr69    Zr   0.64827   0.64834   0.85164   1.000
    Zr70    Zr   0.09720   0.09712   0.70850   1.000
    Zr71    Zr   0.09681   0.09755   0.09700   1.000
    Zr72    Zr   0.70843   0.09761   0.09705   1.000
    Zr73    Zr   0.09752   0.70820   0.09683   1.000
    Zr74    Zr   0.90282   0.90288   0.29146   1.000
    Zr75    Zr   0.90322   0.90245   0.90298   1.000
    Zr76    Zr   0.90250   0.29180   0.90318   1.000
    Zr77    Zr   0.29160   0.90239   0.90297   1.000
    O78     O    0.05342   0.44655   0.05341   1.000
    O79     O    0.08367   0.35726   0.08352   1.000
    O80     O    0.44661   0.05340   0.05336   1.000
    O81     O    0.35728   0.08362   0.08355   1.000
    O82     O    0.44664   0.44657   0.05344   1.000
    O83     O    0.47548   0.35728   0.08363   1.000
    O84     O    0.47548   0.08367   0.08361   1.000
    O85     O    0.08367   0.47534   0.08374   1.000
    O86     O    0.35732   0.47536   0.08378   1.000
    O87     O    0.12590   0.62280   0.12552   1.000
    O88     O    0.12547   0.12587   0.12552   1.000
    O89     O    0.62299   0.12594   0.12558   1.000
    O90     O    0.13112   0.33307   0.13100   1.000
    O91     O    0.13403   0.23434   0.13387   1.000
    O92     O    0.33315   0.13107   0.13097   1.000
    O93     O    0.23434   0.13403   0.13390   1.000
    O94     O    0.40476   0.13109   0.13100   1.000
    O95     O    0.49766   0.13409   0.13397   1.000
    O96     O    0.40476   0.33310   0.13108   1.000
    O97     O    0.49766   0.23440   0.13399   1.000
    O98     O    0.13112   0.40461   0.13115   1.000
    O99     O    0.13410   0.49749   0.13411   1.000
    O100    O    0.33316   0.40464   0.13118   1.000
    O101    O    0.23442   0.49750   0.13414   1.000
    O102    O    0.30090   0.19913   0.19911   1.000
    O103    O    0.19918   0.30081   0.19916   1.000
    O104    O    0.30089   0.30083   0.19916   1.000
    O105    O    0.13405   0.13400   0.23426   1.000
    O106    O    0.49762   0.13411   0.23430   1.000
    O107    O    0.13412   0.49753   0.23436   1.000
    O108    O    0.30086   0.19920   0.30087   1.000
    O109    O    0.19917   0.19914   0.30087   1.000
    O110    O    0.19919   0.30085   0.30093   1.000
    O111    O    0.87435   0.87432   0.37693   1.000
    O112    O    0.13114   0.13105   0.33309   1.000
    O113    O    0.08371   0.08358   0.35724   1.000
    O114    O    0.40470   0.13118   0.33310   1.000
    O115    O    0.47543   0.08368   0.35725   1.000
    O116    O    0.13116   0.40469   0.33317   1.000
    O117    O    0.08372   0.47540   0.35728   1.000
    O118    O    0.33310   0.13123   0.40473   1.000
    O119    O    0.13108   0.13113   0.40473   1.000
    O120    O    0.13112   0.33313   0.40486   1.000
    O121    O    0.05342   0.05340   0.44660   1.000
    O122    O    0.44659   0.05346   0.44661   1.000
    O123    O    0.05344   0.44658   0.44666   1.000
    O124    O    0.08362   0.08371   0.47547   1.000
    O125    O    0.13400   0.13411   0.49768   1.000
    O126    O    0.35727   0.08378   0.47548   1.000
    O127    O    0.23433   0.13415   0.49768   1.000
    O128    O    0.08365   0.35729   0.47557   1.000
    O129    O    0.13402   0.23440   0.49775   1.000
    O130    O    0.86601   0.76560   0.50226   1.000
    O131    O    0.86603   0.86589   0.50233   1.000
    O132    O    0.76570   0.86585   0.50233   1.000
    O133    O    0.91638   0.64271   0.52444   1.000
    O134    O    0.94658   0.55342   0.55334   1.000
    O135    O    0.91641   0.91629   0.52454   1.000
    O136    O    0.94661   0.94660   0.55341   1.000
    O137    O    0.64276   0.91622   0.52454   1.000
    O138    O    0.55343   0.94654   0.55341   1.000
    O139    O    0.12568   0.12569   0.62306   1.000
    O140    O    0.86891   0.66687   0.59515   1.000
    O141    O    0.86895   0.86887   0.59528   1.000
    O142    O    0.66692   0.86877   0.59528   1.000
    O143    O    0.91630   0.52460   0.64270   1.000
    O144    O    0.52460   0.91632   0.64275   1.000
    O145    O    0.91632   0.91642   0.64277   1.000
    O146    O    0.86887   0.59531   0.66681   1.000
    O147    O    0.80084   0.69915   0.69909   1.000
    O148    O    0.59533   0.86882   0.66691   1.000
    O149    O    0.69916   0.80080   0.69915   1.000
    O150    O    0.86889   0.86895   0.66692   1.000
    O151    O    0.80086   0.80086   0.69915   1.000
    O152    O    0.86590   0.50247   0.76562   1.000
    O153    O    0.50240   0.86589   0.76572   1.000
    O154    O    0.86597   0.86600   0.76576   1.000
    O155    O    0.69913   0.69917   0.80082   1.000
    O156    O    0.80085   0.69919   0.80085   1.000
    O157    O    0.69913   0.80087   0.80091   1.000
    O158    O    0.76560   0.50250   0.86588   1.000
    O159    O    0.86593   0.50251   0.86591   1.000
    O160    O    0.87412   0.37720   0.87449   1.000
    O161    O    0.50237   0.76560   0.86601   1.000
    O162    O    0.50237   0.86590   0.86605   1.000
    O163    O    0.37704   0.87406   0.87444   1.000
    O164    O    0.86599   0.76565   0.86611   1.000
    O165    O    0.76569   0.86597   0.86612   1.000
    O166    O    0.87455   0.87413   0.87448   1.000
    O167    O    0.66686   0.59536   0.86880   1.000
    O168    O    0.59526   0.66690   0.86887   1.000
    O169    O    0.86891   0.59539   0.86886   1.000
    O170    O    0.86890   0.66693   0.86898   1.000
    O171    O    0.59526   0.86891   0.86901   1.000
    O172    O    0.66688   0.86893   0.86905   1.000
    O173    O    0.64271   0.52464   0.91624   1.000
    O174    O    0.91636   0.52466   0.91628   1.000
    O175    O    0.52454   0.64271   0.91635   1.000
    O176    O    0.52455   0.91633   0.91641   1.000
    O177    O    0.91636   0.64274   0.91646   1.000
    O178    O    0.64275   0.91638   0.91643   1.000
    O179    O    0.55339   0.55343   0.94655   1.000
    O180    O    0.94661   0.55345   0.94661   1.000
    O181    O    0.55342   0.94660   0.94662   1.000
    N182    N    0.99989   0.00016   0.63202   1.000
    O183    O    0.01327   0.01347   0.58847   1.000
    O184    O    0.98657   0.98677   0.61518   1.000
    N185    N    0.00012   0.99984   0.36800   1.000
    O186    O    0.01345   0.01322   0.38484   1.000
    O187    O    0.98674   0.98652   0.41155   1.000
    N188    N    0.99990   0.36814   0.63209   1.000
    O189    O    0.01329   0.38495   0.58854   1.000
    O190    O    0.98657   0.41166   0.61521   1.000
    N191    N    0.00000   0.63182   0.00027   1.000
    O192    O    0.01335   0.58831   0.01355   1.000
    O193    O    0.98665   0.61504   0.98686   1.000
    N194    N    0.36803   0.63184   0.00020   1.000
    O195    O    0.41157   0.61504   0.98678   1.000
    O196    O    0.38488   0.58832   0.01351   1.000
    N197    N    0.62017   0.99994   0.34533   1.000
    O198    O    0.58252   0.01334   0.34767   1.000
    O199    O    0.58252   0.01331   0.37351   1.000
    O200    O    0.60923   0.98658   0.40021   1.000
    N201    N    0.36805   0.99994   0.99991   1.000
    O202    O    0.38488   0.01331   0.01327   1.000
    O203    O    0.41158   0.98660   0.98659   1.000
    N204    N    0.00000   0.36818   0.99972   1.000
    O205    O    0.98666   0.41169   0.98644   1.000
    O206    O    0.01336   0.38497   0.01314   1.000
    N207    N    0.00011   0.63186   0.36792   1.000
    O208    O    0.98672   0.61505   0.41147   1.000
    O209    O    0.01344   0.58834   0.38481   1.000
    N210    N    0.36808   0.00010   0.63202   1.000
    O211    O    0.38491   0.01344   0.58847   1.000
    O212    O    0.41162   0.98671   0.61517   1.000
    N213    N    0.66733   0.00008   0.00011   1.000
    N214    N    0.63199   0.36817   0.99979   1.000
    O215    O    0.58845   0.38497   0.01321   1.000
    O216    O    0.61514   0.41168   0.98649   1.000
loop_
    _geom_bond_atom_site_label_1
    _geom_bond_atom_site_label_2
    _geom_bond_distance
    _geom_bond_site_symmetry_2
    _ccdc_geom_bond_type
    Zr17   O78       0.71813      .   S
    Zr14   O78       0.71813      .   S
    Zr17   O79       0.68675      .   S
    Zr41   O79       0.68675      .   S
    Zr11   O80       0.71816      .   S
    Zr12   O80       0.71816      .   S
    Zr11   O81       0.68705      .   S
    Zr35   O81       0.68705      .   S
    Zr20   O82       0.71811      .   S
    Zr19   O82       0.71811      .   S
    Zr20   O83       0.68700      .   S
    Zr44   O83       0.68700      .   S
    Zr12   O84       0.68692      .   S
    Zr36   O84       0.68692      .   S
    Zr14   O85       0.68694      .   S
    Zr38   O85       0.68694      .   S
    Zr19   O86       0.68696      .   S
    Zr43   O86       0.68696      .   S
    Zr73   O87       1.07571      .   S
    Zr3    O87       1.07571      .   S
    Zr71   O88       1.07591      .   S
    Zr1    O88       1.07591      .   S
    Zr72   O89       1.07572      .   S
    Zr2    O89       1.07572      .   S
    Zr41   O90       0.66788      .   S
    Zr60   O90       0.66788      .   S
    Zr41   O91       1.02469      .   S
    Zr1    O91       1.02469      .   S
    Zr35   O92       0.66744      .   S
    Zr59   O92       0.66744      .   S
    Zr35   O93       1.02467      .   S
    Zr1    O93       1.02467      .   S
    Zr36   O94       0.66743      .   S
    Zr59   O94       0.66743      .   S
    Zr36   O95       1.02442      .   S
    Zr2    O95       1.02442      .   S
    Zr44   O96       0.66743      .   S
    Zr63   O96       0.66743      .   S
    Zr44   O97       1.02455      .   S
    Zr2    O97       1.02455      .   S
    Zr38   O98       0.66737      .   S
    Zr60   O98       0.66737      .   S
    Zr38   O99       1.02436      .   S
    Zr3    O99       1.02436      .   S
    Zr43   O100      0.66737      .   S
    Zr63   O100      0.66737      .   S
    Zr43   O101      1.02441      .   S
    Zr3    O101      1.02441      .   S
    Zr59   O102      1.10994      .   S
    Zr8    O102      1.10994      .   S
    Zr60   O103      1.10862      .   S
    Zr8    O103      1.10862      .   S
    Zr63   O104      1.10861      .   S
    Zr8    O104      1.10861      .   S
    Zr1    O105      1.02485      .   S
    Zr42   O105      1.02485      .   S
    Zr2    O106      1.02463      .   S
    Zr40   O106      1.02463      .   S
    Zr3    O107      1.02384      .   S
    Zr37   O107      1.02384      .   S
    Zr8    O108      1.10826      .   S
    Zr61   O108      1.10826      .   S
    Zr8    O109      1.10866      .   S
    Zr62   O109      1.10866      .   S
    Zr8    O110      1.10994      .   S
    Zr58   O110      1.10994      .   S
    Zr74   O111      1.07575      .   S
    Zr4    O111      1.07575      .   S
    Zr42   O112      0.66737      .   S
    Zr62   O112      0.66737      .   S
    Zr42   O113      0.68704      .   S
    Zr18   O113      0.68704      .   S
    Zr40   O114      0.66742      .   S
    Zr61   O114      0.66742      .   S
    Zr40   O115      0.68695      .   S
    Zr16   O115      0.68695      .   S
    Zr37   O116      0.66740      .   S
    Zr58   O116      0.66740      .   S
    Zr37   O117      0.68741      .   S
    Zr13   O117      0.68741      .   S
    Zr61   O118      0.66744      .   S
    Zr39   O118      0.66744      .   S
    Zr62   O119      0.66744      .   S
    Zr45   O119      0.66744      .   S
    Zr58   O120      0.66743      .   S
    Zr34   O120      0.66743      .   S
    Zr18   O121      0.71811      .   S
    Zr21   O121      0.71811      .   S
    Zr16   O122      0.71817      .   S
    Zr15   O122      0.71817      .   S
    Zr13   O123      0.71813      .   S
    Zr10   O123      0.71813      .   S
    Zr45   O124      0.68699      .   S
    Zr21   O124      0.68699      .   S
    Zr45   O125      1.02467      .   S
    Zr0    O125      1.02467      .   S
    Zr39   O126      0.68702      .   S
    Zr15   O126      0.68702      .   S
    Zr39   O127      1.02480      .   S
    Zr0    O127      1.02480      .   S
    Zr34   O128      0.68700      .   S
    Zr10   O128      0.68700      .   S
    Zr34   O129      1.02456      .   S
    Zr0    O129      1.02456      .   S
    Zr4    O130      1.02455      .   S
    Zr51   O130      1.02455      .   S
    Zr4    O131      1.02460      .   S
    Zr57   O131      1.02460      .   S
    Zr4    O132      1.02478      .   S
    Zr46   O132      1.02478      .   S
    Zr27   O133      0.68701      .   S
    Zr51   O133      0.68701      .   S
    Zr27   O134      0.71813      .   S
    Zr28   O134      0.71813      .   S
    Zr33   O135      0.68700      .   S
    Zr57   O135      0.68700      .   S
    Zr33   O136      0.71818      .   S
    Zr30   O136      0.71818      .   S
    Zr22   O137      0.68697      .   S
    Zr46   O137      0.68697      .   S
    Zr22   O138      0.71813      .   S
    Zr25   O138      0.71813      .   S
    Zr0    O139      1.07537      .   S
    Zr70   O139      1.07537      .   S
    Zr51   O140      0.66750      .   S
    Zr67   O140      0.66750      .   S
    Zr57   O141      0.66744      .   S
    Zr68   O141      0.66744      .   S
    Zr46   O142      0.66744      .   S
    Zr64   O142      0.66744      .   S
    Zr28   O143      0.68697      .   S
    Zr52   O143      0.68697      .   S
    Zr25   O144      0.68696      .   S
    Zr49   O144      0.68696      .   S
    Zr30   O145      0.68704      .   S
    Zr54   O145      0.68704      .   S
    Zr67   O146      0.66739      .   S
    Zr52   O146      0.66739      .   S
    Zr67   O147      1.10994      .   S
    Zr9    O147      1.10994      .   S
    Zr64   O148      0.66741      .   S
    Zr49   O148      0.66741      .   S
    Zr64   O149      1.10832      .   S
    Zr9    O149      1.10832      .   S
    Zr68   O150      0.66744      .   S
    Zr54   O150      0.66744      .   S
    Zr68   O151      1.10866      .   S
    Zr9    O151      1.10866      .   S
    Zr52   O152      1.02430      .   S
    Zr6    O152      1.02430      .   S
    Zr49   O153      1.02469      .   S
    Zr7    O153      1.02469      .   S
    Zr54   O154      1.02478      .   S
    Zr5    O154      1.02478      .   S
    Zr9    O155      1.10861      .   S
    Zr69   O155      1.10861      .   S
    Zr9    O156      1.10857      .   S
    Zr65   O156      1.10857      .   S
    Zr9    O157      1.10994      .   S
    Zr66   O157      1.10994      .   S
    Zr6    O158      1.02441      .   S
    Zr56   O158      1.02441      .   S
    Zr6    O159      1.02430      .   S
    Zr48   O159      1.02430      .   S
    Zr6    O160      1.07571      .   S
    Zr76   O160      1.07571      .   S
    Zr7    O161      1.02455      .   S
    Zr55   O161      1.02455      .   S
    Zr7    O162      1.02437      .   S
    Zr50   O162      1.02437      .   S
    Zr7    O163      1.07572      .   S
    Zr77   O163      1.07572      .   S
    Zr5    O164      1.02476      .   S
    Zr47   O164      1.02476      .   S
    Zr5    O165      1.02466      .   S
    Zr53   O165      1.02466      .   S
    Zr5    O166      1.07573      .   S
    Zr75   O166      1.07573      .   S
    Zr69   O167      0.66738      .   S
    Zr56   O167      0.66738      .   S
    Zr69   O168      0.66743      .   S
    Zr55   O168      0.66743      .   S
    Zr65   O169      0.66736      .   S
    Zr48   O169      0.66736      .   S
    Zr65   O170      0.66745      .   S
    Zr47   O170      0.66745      .   S
    Zr66   O171      0.66743      .   S
    Zr50   O171      0.66743      .   S
    Zr66   O172      0.66743      .   S
    Zr53   O172      0.66743      .   S
    Zr56   O173      0.68697      .   S
    Zr32   O173      0.68697      .   S
    Zr48   O174      0.68700      .   S
    Zr24   O174      0.68700      .   S
    Zr55   O175      0.68699      .   S
    Zr31   O175      0.68699      .   S
    Zr50   O176      0.68697      .   S
    Zr26   O176      0.68697      .   S
    Zr47   O177      0.68704      .   S
    Zr23   O177      0.68704      .   S
    Zr53   O178      0.68673      .   S
    Zr29   O178      0.68673      .   S
    Zr32   O179      0.71811      .   S
    Zr31   O179      0.71811      .   S
    Zr24   O180      0.71808      .   S
    Zr23   O180      0.71808      .   S
    Zr29   O181      0.71787      .   S
    Zr26   O181      0.71787      .   S
    N182   O183      0.54904  1_655   S
    Zr21   O183      1.21956      .   S
    N182   O184      0.54894  1_545   S
    Zr30   O184      1.21923      .   S
    N185   O186      0.54902  1_565   S
    Zr18   O186      1.21948      .   S
    N185   O187      0.54901  1_455   S
    Zr33   O187      1.21943      .   S
    N188   O189      0.54904  1_655   S
    Zr10   O189      1.21955      .   S
    N188   O190      0.54899      .   S
    Zr28   O190      1.21944      .   S
    N191   O192      0.54899      .   S
    Zr14   O192      1.21948      .   S
    N191   O193      0.54892  1_454   S
    Zr23   O193      1.21911      .   S
    N194   O195      0.54906  1_554   S
    Zr31   O195      1.21957      .   S
    N194   O196      0.54899      .   S
    Zr19   O196      1.21944      .   S
    N197   O198      0.49737  1_565   S
    Zr16   O198      1.21170      .   S
    N197   O199      0.53485  1_565   S
    Zr16   O199      1.13406      .   S
    N197   O200      0.71014      .   S
    Zr22   O200      1.39312      .   S
    N201   O202      0.54903  1_566   S
    Zr11   O202      1.21953      .   S
    N201   O203      0.54904      .   S
    Zr26   O203      1.21954      .   S
    N204   O205      0.54898  1_455   S
    Zr24   O205      1.21933      .   S
    N204   O206      0.54902  1_556   S
    Zr17   O206      1.21948      .   S
    N207   O208      0.54904  1_455   S
    Zr27   O208      1.21954      .   S
    N207   O209      0.54899      .   S
    Zr13   O209      1.21945      .   S
    N210   O211      0.54901      .   S
    Zr15   O211      1.21947      .   S
    N210   O212      0.54902  1_545   S
    Zr25   O212      1.21948      .   S
    N214   O215      0.54904  1_556   S
    Zr20   O215      1.21951      .   S
    N214   O216      0.54897      .   S
    Zr32   O216      1.21938      .   S
