# CIF file generated by openbabel 2.4.90, see http://openbabel.sf.net
data_I
_chemical_name_common ''
_cell_length_a 14.864
_cell_length_b 13.096
_cell_length_c 13.1
_cell_angle_alpha 92.409
_cell_angle_beta 95.218
_cell_angle_gamma 84.857
_space_group_name_H-M_alt 'P 1'
_space_group_name_Hall 'P 1'
loop_
    _symmetry_equiv_pos_as_xyz
    x,y,z
loop_
    _atom_site_label
    _atom_site_type_symbol
    _atom_site_fract_x
    _atom_site_fract_y
    _atom_site_fract_z
    _atom_site_occupancy
    S0      S    0.17240   0.31192   0.68787   1.000
    S1      S    0.67241   0.31192   0.68787   1.000
    S2      S    0.32761   0.68807   0.31212   1.000
    S3      S    0.82761   0.68807   0.31212   1.000
    O4      O    0.22605   0.39541   0.74216   1.000
    O5      O    0.72606   0.39541   0.74216   1.000
    O6      O    0.27305   0.73846   0.39650   1.000
    O7      O    0.77305   0.73846   0.39650   1.000
    O8      O    0.27396   0.60458   0.25784   1.000
    O9      O    0.77396   0.60458   0.25784   1.000
    O10     O    0.22696   0.26153   0.60343   1.000
    O11     O    0.72697   0.26153   0.60343   1.000
    O12     O    0.08651   0.36424   0.63620   1.000
    O13     O    0.58652   0.36424   0.63620   1.000
    O14     O    0.15245   0.23573   0.76059   1.000
    O15     O    0.65245   0.23573   0.76059   1.000
    O16     O    0.41350   0.63575   0.36379   1.000
    O17     O    0.91350   0.63575   0.36379   1.000
    O18     O    0.34756   0.76426   0.23940   1.000
    O19     O    0.84757   0.76426   0.23940   1.000
loop_
    _geom_bond_atom_site_label_1
    _geom_bond_atom_site_label_2
    _geom_bond_distance
    _geom_bond_site_symmetry_2
    _ccdc_geom_bond_type
    O18    S2        1.47491      .   S
    O19    S3        1.47492      .   S
    O9     S3        1.52470      .   S
    O8     S2        1.52471      .   S
    S2     O16       1.51078      .   S
    S2     O6        1.52342      .   S
    S3     O17       1.51078      .   S
    S3     O7        1.52342      .   S
    O10    S0        1.52401      .   S
    O11    S1        1.52401      .   S
    O12    S0        1.51080      .   S
    O13    S1        1.51079      .   S
    S0     O4        1.52475      .   S
    S0     O14       1.47492      .   S
    S1     O5        1.52475      .   S
    S1     O15       1.47492      .   S
