# CIF file generated by openbabel 2.4.90, see http://openbabel.sf.net
data_I
_chemical_name_common ''
_cell_length_a 14.864
_cell_length_b 13.096
_cell_length_c 13.1
_cell_angle_alpha 92.409
_cell_angle_beta 95.218
_cell_angle_gamma 84.857
_space_group_name_H-M_alt 'P 1'
_space_group_name_Hall 'P 1'
loop_
    _symmetry_equiv_pos_as_xyz
    x,y,z
loop_
    _atom_site_label
    _atom_site_type_symbol
    _atom_site_fract_x
    _atom_site_fract_y
    _atom_site_fract_z
    _atom_site_occupancy
    Zn0     Zn   0.85946   0.38637   0.79091   1.000
    Zn1     Zn   0.14053   0.79082   0.38645   1.000
    Zn2     Zn   0.64053   0.79082   0.38645   1.000
    Zn3     Zn   0.14055   0.61363   0.20900   1.000
    Zn4     Zn   0.64056   0.61363   0.20900   1.000
    Zn5     Zn   0.35948   0.20918   0.61354   1.000
    Zn6     Zn   0.85949   0.20918   0.61354   1.000
    Zn7     Zn   0.24998   0.84323   0.84327   1.000
    Zn8     Zn   0.74998   0.84323   0.84327   1.000
    Zn9     Zn   0.25003   0.15677   0.15670   1.000
    Zn10    Zn   0.75004   0.15677   0.15670   1.000
    Zn11    Zn   0.99995   0.81411   0.81402   1.000
    Zn12    Zn   0.49995   0.81411   0.81402   1.000
    Zn13    Zn   0.00000   0.18589   0.18597   1.000
    Zn14    Zn   0.50006   0.18589   0.18597   1.000
    H15     H    0.04137   0.48714   0.72027   1.000
    H16     H    0.54138   0.48714   0.72027   1.000
    H17     H    0.07072   0.61029   0.73643   1.000
    H18     H    0.57072   0.61029   0.73643   1.000
    H19     H    0.46492   0.72770   0.13424   1.000
    H20     H    0.96492   0.72770   0.13424   1.000
    H21     H    0.42278   0.79700   0.03108   1.000
    H22     H    0.92279   0.79700   0.03108   1.000
    H23     H    0.24241   0.58812   0.83700   1.000
    H24     H    0.74241   0.58812   0.83702   1.000
    H25     H    0.27030   0.68859   0.04452   1.000
    H26     H    0.77030   0.68859   0.04452   1.000
    H27     H    0.45844   0.72014   0.48696   1.000
    H28     H    0.95845   0.72014   0.48696   1.000
    H29     H    0.42893   0.73648   0.60991   1.000
    H30     H    0.92893   0.73648   0.60991   1.000
    H31     H    0.03568   0.13353   0.72635   1.000
    Zn32    Zn   0.35946   0.38637   0.79091   1.000
    H33     H    0.53569   0.13353   0.72630   1.000
    H34     H    0.07718   0.03065   0.79626   1.000
    H35     H    0.57719   0.03065   0.79626   1.000
    H36     H    0.25736   0.83724   0.58834   1.000
    H37     H    0.75736   0.83724   0.58834   1.000
    H38     H    0.22939   0.04496   0.68916   1.000
    H39     H    0.72939   0.04496   0.68916   1.000
    H40     H    0.45863   0.51287   0.27971   1.000
    H41     H    0.95864   0.51287   0.27971   1.000
    H42     H    0.42929   0.38972   0.26354   1.000
    H43     H    0.92929   0.38972   0.26354   1.000
    H44     H    0.03509   0.27230   0.86575   1.000
    H45     H    0.53509   0.27230   0.86575   1.000
    H46     H    0.07723   0.20301   0.96891   1.000
    H47     H    0.57723   0.20301   0.96891   1.000
    H48     H    0.25760   0.41189   0.16294   1.000
    H49     H    0.75760   0.41189   0.16294   1.000
    H50     H    0.22971   0.31141   0.95547   1.000
    H51     H    0.72971   0.31141   0.95547   1.000
    H52     H    0.04157   0.27988   0.51303   1.000
    H53     H    0.54157   0.27988   0.51303   1.000
    H54     H    0.07108   0.26354   0.39007   1.000
    H55     H    0.57108   0.26354   0.39007   1.000
    H56     H    0.46432   0.86647   0.27363   1.000
    H57     H    0.96433   0.86647   0.27363   1.000
    H58     H    0.42282   0.96936   0.20373   1.000
    H59     H    0.92283   0.96936   0.20370   1.000
    H60     H    0.24265   0.16278   0.41165   1.000
    H61     H    0.74265   0.16278   0.41165   1.000
    H62     H    0.27062   0.95504   0.31082   1.000
    H63     H    0.77062   0.95504   0.31082   1.000
    H64     H    0.48613   0.32598   0.67430   1.000
    H65     H    0.98613   0.32598   0.67430   1.000
    H66     H    0.01388   0.67401   0.32570   1.000
    H67     H    0.51389   0.67401   0.32570   1.000
    C68     C    0.30877   0.60780   0.82056   1.000
    C69     C    0.80877   0.60780   0.82056   1.000
    C70     C    0.44667   0.59396   0.78028   1.000
    C71     C    0.94667   0.59396   0.78028   1.000
    C72     C    0.19940   0.71126   0.02200   1.000
    C73     C    0.69941   0.71126   0.02200   1.000
    C74     C    0.05464   0.73902   0.02858   1.000
    C75     C    0.55465   0.73902   0.02858   1.000
    C76     C    0.19097   0.82076   0.60700   1.000
    C77     C    0.69097   0.82076   0.60700   1.000
    C78     C    0.05302   0.78044   0.59385   1.000
    C79     C    0.55303   0.78044   0.59385   1.000
    C80     C    0.30032   0.02294   0.71144   1.000
    C81     C    0.80033   0.02294   0.71144   1.000
    C82     C    0.44521   0.02851   0.73856   1.000
    C83     C    0.94522   0.02851   0.73856   1.000
    C84     C    0.19124   0.39220   0.17940   1.000
    C85     C    0.69124   0.39220   0.17940   1.000
    C86     C    0.05334   0.40604   0.21960   1.000
    C87     C    0.55334   0.40604   0.21969   1.000
    C88     C    0.30060   0.28874   0.97729   1.000
    C89     C    0.80061   0.28874   0.97729   1.000
    C90     C    0.44537   0.26099   0.97141   1.000
    C91     C    0.94537   0.26099   0.97141   1.000
    C92     C    0.30904   0.17926   0.39209   1.000
    C93     C    0.80904   0.17926   0.39209   1.000
    C94     C    0.44698   0.21958   0.40613   1.000
    C95     C    0.94699   0.21958   0.40613   1.000
    C96     C    0.19969   0.97706   0.28854   1.000
    C97     C    0.69969   0.97706   0.28854   1.000
    C98     C    0.05479   0.97149   0.26142   1.000
    C99     C    0.55480   0.97149   0.26140   1.000
    O100    O    0.56607   0.70204   0.29780   1.000
    C101    C    0.29535   0.97418   0.02582   1.000
    C102    C    0.79536   0.97419   0.02581   1.000
    C103    C    0.20465   0.02581   0.97410   1.000
    C104    C    0.70465   0.02581   0.97418   1.000
    N105    N    0.33225   0.70266   0.82060   1.000
    N106    N    0.83226   0.70266   0.82060   1.000
    N107    N    0.42086   0.69505   0.79309   1.000
    N108    N    0.92086   0.69505   0.79309   1.000
    N109    N    0.37720   0.53661   0.79600   1.000
    N110    N    0.87720   0.53661   0.79649   1.000
    N111    N    0.03169   0.55664   0.75915   1.000
    N112    N    0.53169   0.55664   0.75915   1.000
    N113    N    0.16997   0.76268   0.93971   1.000
    N114    N    0.66997   0.76268   0.93971   1.000
    N115    N    0.07626   0.78133   0.94273   1.000
    N116    N    0.57626   0.78133   0.94273   1.000
    N117    N    0.13086   0.69302   0.08005   1.000
    N118    N    0.63087   0.69302   0.08005   1.000
    N119    N    0.46931   0.73878   0.05803   1.000
    N120    N    0.96931   0.73878   0.05803   1.000
    N121    N    0.16751   0.82075   0.70269   1.000
    N122    N    0.66752   0.82075   0.70269   1.000
    N123    N    0.07887   0.79317   0.69496   1.000
    N124    N    0.57887   0.79317   0.69496   1.000
    N125    N    0.12249   0.79674   0.53662   1.000
    N126    N    0.62250   0.79674   0.53662   1.000
    N127    N    0.46798   0.75926   0.55636   1.000
    N128    N    0.96798   0.75926   0.55636   1.000
    N129    N    0.32979   0.93991   0.76281   1.000
    N130    N    0.82979   0.93991   0.76281   1.000
    N131    N    0.42356   0.94272   0.78104   1.000
    N132    N    0.92356   0.94272   0.78104   1.000
    N133    N    0.36893   0.08015   0.69280   1.000
    N134    N    0.86894   0.08015   0.69280   1.000
    N135    N    0.03068   0.05751   0.73790   1.000
    N136    N    0.53069   0.05751   0.73798   1.000
    N137    N    0.16775   0.29735   0.17933   1.000
    N138    N    0.66776   0.29735   0.17933   1.000
    N139    N    0.07915   0.30495   0.20688   1.000
    N140    N    0.57915   0.30495   0.20688   1.000
    N141    N    0.12280   0.46339   0.20347   1.000
    N142    N    0.62281   0.46339   0.20347   1.000
    N143    N    0.46832   0.44337   0.24082   1.000
    N144    N    0.96832   0.44337   0.24082   1.000
    N145    N    0.33004   0.23732   0.06027   1.000
    N146    N    0.83005   0.23732   0.06027   1.000
    N147    N    0.42375   0.21868   0.05726   1.000
    N148    N    0.92375   0.21868   0.05726   1.000
    N149    N    0.36915   0.30699   0.91994   1.000
    N150    N    0.86915   0.30699   0.91994   1.000
    N151    N    0.03070   0.26123   0.94196   1.000
    N152    N    0.53071   0.26123   0.94196   1.000
    N153    N    0.33249   0.17927   0.29729   1.000
    N154    N    0.83250   0.17927   0.29729   1.000
    N155    N    0.42113   0.20685   0.30500   1.000
    N156    N    0.92114   0.20685   0.30500   1.000
    N157    N    0.37751   0.20328   0.46337   1.000
    N158    N    0.87752   0.20328   0.46337   1.000
    N159    N    0.03203   0.24076   0.44362   1.000
    N160    N    0.53203   0.24076   0.44362   1.000
    N161    N    0.17022   0.06009   0.23718   1.000
    N162    N    0.67022   0.06009   0.23718   1.000
    N163    N    0.07645   0.05729   0.21895   1.000
    N164    N    0.57646   0.05729   0.21895   1.000
    N165    N    0.13108   0.91985   0.30714   1.000
    N166    N    0.63108   0.91985   0.30714   1.000
    N167    N    0.46933   0.94249   0.26201   1.000
    N168    N    0.96933   0.94249   0.26201   1.000
    O169    O    0.32882   0.89287   0.98271   1.000
    O170    O    0.82883   0.89288   0.98271   1.000
    O171    O    0.17112   0.98268   0.89284   1.000
    O172    O    0.67112   0.98268   0.89285   1.000
    O173    O    0.17119   0.10713   0.01728   1.000
    O174    O    0.67118   0.10712   0.01720   1.000
    O175    O    0.32888   0.01731   0.10715   1.000
    O176    O    0.82890   0.01732   0.10714   1.000
    O177    O    0.43395   0.29795   0.70220   1.000
    O178    O    0.93395   0.29795   0.70220   1.000
    O179    O    0.06606   0.70204   0.29780   1.000
loop_
    _geom_bond_atom_site_label_1
    _geom_bond_atom_site_label_2
    _geom_bond_distance
    _geom_bond_site_symmetry_2
    _ccdc_geom_bond_type
    O174   Zn10      2.18708      .   S
    O174   C104      1.26668  1_554   S
    O173   Zn9       2.18620      .   S
    O173   C103      1.26764  1_554   S
    C72    H25       1.08644      .   S
    C72    N117      1.36866      .   S
    C72    N113      1.31504  1_554   S
    C73    H26       1.08644      .   S
    C73    N118      1.36866      .   S
    C73    N114      1.31504  1_554   S
    C102   O176      1.26725  1_565   S
    C102   O170      1.26715  1_554   S
    C101   O175      1.26720  1_565   S
    C101   O169      1.26724  1_554   S
    C75    N119      1.35936      .   S
    C75    N118      1.36886      .   S
    C75    N116      1.35093  1_554   S
    C74    N120      1.35920  1_455   S
    C74    N117      1.36887      .   S
    C74    N115      1.35093  1_554   S
    H21    N119      1.03334      .   S
    H22    N120      1.03334      .   S
    N147   N145      1.39624      .   S
    N147   Zn14      1.98486      .   S
    N147   C90       1.35097  1_554   S
    N148   N146      1.39624      .   S
    N148   Zn13      1.98437  1_655   S
    N148   C91       1.35098  1_554   S
    N120   H20       1.02358      .   S
    N119   H19       1.02358      .   S
    N146   Zn10      2.17557      .   S
    N146   C89       1.32241  1_554   S
    N145   Zn9       2.17557      .   S
    N145   C88       1.32242  1_554   S
    N117   Zn3       2.00792      .   S
    N118   Zn4       2.00792      .   S
    O176   Zn10      2.18764      .   S
    O175   Zn9       2.18763      .   S
    Zn9    N137      2.14221      .   S
    Zn9    N161      2.17510      .   S
    Zn9    N153      2.14235      .   S
    Zn10   N138      2.14222      .   S
    Zn10   N162      2.17510      .   S
    Zn10   N154      2.14235      .   S
    H49    C85       1.08389      .   S
    H48    C84       1.08389      .   S
    N137   C84       1.32008      .   S
    N137   N139      1.39092      .   S
    N138   C85       1.32008      .   S
    N138   N140      1.39090      .   S
    C85    N142      1.36634      .   S
    C84    N141      1.36635      .   S
    Zn13   N139      2.03092      .   S
    Zn13   N163      1.98572      .   S
    Zn13   N156      2.02966  1_455   S
    Zn14   N140      2.03037      .   S
    Zn14   N164      1.98530      .   S
    Zn14   N155      2.03032      .   S
    N141   Zn3       2.00588      .   S
    N141   C86       1.36639      .   S
    N142   Zn4       2.00588      .   S
    N142   C87       1.36669      .   S
    H59    N168      1.03344      .   S
    H58    N167      1.03318      .   S
    N140   C87       1.35278      .   S
    N139   C86       1.35266      .   S
    N164   N162      1.39602      .   S
    N164   C99       1.35099  1_545   S
    N163   N161      1.39603      .   S
    N163   C98       1.35112  1_545   S
    C86    N144      1.36188  1_455   S
    C87    N143      1.36170      .   S
    N161   C96       1.32264  1_545   S
    N162   C97       1.32264  1_545   S
    N143   H42       1.02013      .   S
    N143   H40       1.02940      .   S
    N144   H43       1.02013      .   S
    N144   H41       1.02940      .   S
    C99    N167      1.35906      .   S
    C99    N166      1.36932      .   S
    C98    N168      1.35888  1_455   S
    C98    N165      1.36923      .   S
    N168   H57       1.02363      .   S
    N167   H56       1.02363      .   S
    C97    N166      1.36318      .   S
    C97    H63       1.08469      .   S
    C96    N165      1.36317      .   S
    C96    H62       1.08471      .   S
    N154   N156      1.39091      .   S
    N154   C93       1.32009      .   S
    N153   N155      1.39091      .   S
    N153   C92       1.32009      .   S
    O100   H67       0.99182      .   S
    O100   Zn2       1.95161      .   S
    O179   H66       0.99182      .   S
    O179   Zn1       1.95161      .   S
    N156   C95       1.35308      .   S
    N155   C94       1.35308      .   S
    N165   Zn1       2.00829      .   S
    N166   Zn2       2.00829      .   S
    Zn1    N125      2.00679      .   S
    Zn2    N126      2.00679      .   S
    H54    N159      1.02016      .   S
    H55    N160      1.02016      .   S
    C92    H60       1.08389      .   S
    C92    N157      1.36628      .   S
    C93    H61       1.08388      .   S
    C93    N158      1.36629      .   S
    C94    N160      1.36192      .   S
    C94    N157      1.36668      .   S
    C95    N159      1.36178  1_655   S
    C95    N158      1.36667      .   S
    N159   H52       1.02943      .   S
    N160   H53       1.02943      .   S
    N158   Zn6       2.00678      .   S
    N157   Zn5       2.00678      .   S
    H28    N128      1.02934      .   S
    H27    N127      1.02935      .   S
    N126   C79       1.36660      .   S
    N126   C77       1.35917      .   S
    N125   C78       1.36661      .   S
    N125   C76       1.35916      .   S
    N128   C78       1.36177  1_655   S
    N128   H30       1.02017      .   S
    N127   C79       1.36192      .   S
    N127   H29       1.02017      .   S
    H37    C77       1.08008      .   S
    H36    C76       1.08008      .   S
    C79    N124      1.35283      .   S
    C78    N123      1.35283      .   S
    C77    N122      1.33134      .   S
    C76    N121      1.33134      .   S
    Zn6    N134      2.00791      .   S
    Zn5    N133      2.00791      .   S
    H64    O177      0.99183      .   S
    H65    O178      0.99183      .   S
    H38    C80       1.08471      .   S
    H39    C81       1.08470      .   S
    N133   C80       1.36329      .   S
    N133   C82       1.36941      .   S
    N134   C81       1.36330      .   S
    N134   C83       1.36940      .   S
    N123   N121      1.39091      .   S
    N123   Zn11      2.03050  1_455   S
    N124   N122      1.39091      .   S
    N124   Zn12      2.03059      .   S
    O177   Zn32      1.95147      .   S
    O178   Zn0       1.95147      .   S
    N121   Zn7       2.14224      .   S
    N122   Zn8       2.14224      .   S
    C81    N130      1.32268  1_545   S
    C80    N129      1.32267  1_545   S
    H16    N112      1.02938      .   S
    H15    N111      1.02938      .   S
    H33    N136      1.02377      .   S
    H31    N135      1.02345      .   S
    H18    N112      1.02013      .   S
    H17    N111      1.02013      .   S
    N135   C83       1.35897  1_455   S
    N135   H34       1.03389      .   S
    N136   C82       1.35901      .   S
    N136   H35       1.03316      .   S
    C82    N131      1.35115  1_545   S
    C83    N132      1.35115  1_545   S
    N112   C70       1.36169      .   S
    N111   C71       1.36155  1_455   S
    N130   N132      1.39603      .   S
    N130   Zn8       2.17491      .   S
    N129   N131      1.39603      .   S
    N129   Zn7       2.17492      .   S
    C71    N108      1.35278      .   S
    C71    N110      1.36666      .   S
    C70    N107      1.35278      .   S
    C70    N109      1.36509      .   S
    N132   Zn11      1.98534      .   S
    N131   Zn12      1.98533      .   S
    Zn32   N109      2.00605      .   S
    Zn32   N149      2.00874      .   S
    Zn0    N110      2.00593      .   S
    Zn0    N150      2.00874      .   S
    N108   Zn11      2.03036      .   S
    N108   N106      1.39074      .   S
    N107   Zn12      2.03036      .   S
    N107   N105      1.39074      .   S
    N109   C68       1.36810      .   S
    N110   C69       1.36635      .   S
    Zn12   N116      1.98487      .   S
    Zn11   N115      1.98480  1_655   S
    C68    N105      1.32011      .   S
    C68    H23       1.08381      .   S
    C69    N106      1.32011      .   S
    C69    H24       1.08388      .   S
    N105   Zn7       2.14231      .   S
    N106   Zn8       2.14231      .   S
    Zn7    O171      2.18761      .   S
    Zn7    N113      2.17570      .   S
    Zn7    O169      2.18632      .   S
    Zn8    O172      2.18762      .   S
    Zn8    N114      2.17571      .   S
    Zn8    O170      2.18640      .   S
    H45    N152      1.02357      .   S
    H44    N151      1.02357      .   S
    O171   C103      1.26648  1_565   S
    O172   C104      1.26726  1_565   S
    N150   C91       1.36887      .   S
    N150   C89       1.36292      .   S
    N149   C90       1.36888      .   S
    N149   C88       1.36292      .   S
    N113   N115      1.39626      .   S
    N114   N116      1.39626      .   S
    N152   H47       1.03335      .   S
    N152   C90       1.35935      .   S
    N151   H46       1.03336      .   S
    N151   C91       1.35919  1_455   S
    H51    C89       1.08469      .   S
    H50    C88       1.08468      .   S
    O177   Zn5       1.95163      .   S
    O178   Zn6       1.95163      .   S
    O179   Zn3       1.95215      .   S
    O100   Zn4       1.95215      .   S
