# CIF file generated by openbabel 2.4.90, see http://openbabel.sf.net
data_I
_chemical_name_common ''
_cell_length_a 14.864
_cell_length_b 13.096
_cell_length_c 13.1
_cell_angle_alpha 92.409
_cell_angle_beta 95.218
_cell_angle_gamma 84.857
_space_group_name_H-M_alt 'P 1'
_space_group_name_Hall 'P 1'
loop_
    _symmetry_equiv_pos_as_xyz
    x,y,z
loop_
    _atom_site_label
    _atom_site_type_symbol
    _atom_site_fract_x
    _atom_site_fract_y
    _atom_site_fract_z
    _atom_site_occupancy
    C0      C    0.29535   0.97418   0.02582   1.000
    C1      C    0.79536   0.97419   0.02581   1.000
    C2      C    0.20465   0.02581   0.97410   1.000
    C3      C    0.70465   0.02581   0.97418   1.000
loop_
    _geom_bond_atom_site_label_1
    _geom_bond_atom_site_label_2
    _geom_bond_distance
    _geom_bond_site_symmetry_2
    _ccdc_geom_bond_type
    C1     C3        1.56260  1_564   S
    C0     C2        1.56298  1_564   S
