# CIF file generated by openbabel 2.4.90, see http://openbabel.sf.net
data_I
_chemical_name_common ''
_cell_length_a 14.864
_cell_length_b 13.096
_cell_length_c 13.1
_cell_angle_alpha 92.409
_cell_angle_beta 95.218
_cell_angle_gamma 84.857
_space_group_name_H-M_alt 'P 1'
_space_group_name_Hall 'P 1'
loop_
    _symmetry_equiv_pos_as_xyz
    x,y,z
loop_
    _atom_site_label
    _atom_site_type_symbol
    _atom_site_fract_x
    _atom_site_fract_y
    _atom_site_fract_z
    _atom_site_occupancy
    Zr0     Zr   0.35946   0.38637   0.79091   1.000
    Zr1     Zr   0.85946   0.38637   0.79091   1.000
    Zr2     Zr   0.14053   0.79082   0.38645   1.000
    Zr3     Zr   0.64053   0.79082   0.38645   1.000
    Zr4     Zr   0.14055   0.61363   0.20900   1.000
    Zr5     Zr   0.64056   0.61363   0.20900   1.000
    Zr6     Zr   0.35948   0.20918   0.61354   1.000
    Zr7     Zr   0.85949   0.20918   0.61354   1.000
    Zr8     Zr   0.24998   0.84323   0.84327   1.000
    Zr9     Zr   0.74998   0.84323   0.84327   1.000
    Zr10    Zr   0.25003   0.15677   0.15670   1.000
    Zr11    Zr   0.75004   0.15677   0.15670   1.000
    Zr12    Zr   0.99995   0.81411   0.81402   1.000
    Zr13    Zr   0.49995   0.81411   0.81402   1.000
    Zr14    Zr   0.00000   0.18589   0.18597   1.000
    Zr15    Zr   0.50006   0.18589   0.18597   1.000
    N16     N    0.67288   0.31377   0.68605   1.000
    O17     O    0.73282   0.35233   0.72629   1.000
    O18     O    0.73306   0.27456   0.64727   1.000
    N19     N    0.82714   0.68622   0.31393   1.000
    O20     O    0.76696   0.72543   0.35270   1.000
    O21     O    0.76720   0.64767   0.27367   1.000
    N22     N    0.32713   0.68622   0.31393   1.000
    O23     O    0.26696   0.72543   0.35270   1.000
    O24     O    0.26719   0.64767   0.27367   1.000
    N25     N    0.17288   0.31377   0.68605   1.000
    O26     O    0.23305   0.27456   0.64727   1.000
    O27     O    0.23282   0.35233   0.72629   1.000
    C28     C    0.75001   0.00000   0.99999   1.000
    C29     C    0.25000   0.00000   0.99996   1.000
    C30     C    0.41564   0.03121   0.73737   1.000
    O31     O    0.38993   0.08794   0.69527   1.000
    O32     O    0.35276   0.96139   0.77021   1.000
    O33     O    0.43870   0.95481   0.76745   1.000
    C34     C    0.96004   0.31196   0.68825   1.000
    O35     O    0.92837   0.32706   0.71740   1.000
    O36     O    0.92838   0.28276   0.67306   1.000
    C37     C    0.58090   0.40242   0.21509   1.000
    O38     O    0.64490   0.31474   0.19155   1.000
    O39     O    0.60629   0.47047   0.21066   1.000
    O40     O    0.56026   0.32392   0.20576   1.000
    C41     C    0.41939   0.21502   0.40247   1.000
    O42     O    0.35533   0.19152   0.31473   1.000
    O43     O    0.39394   0.21063   0.47046   1.000
    O44     O    0.43999   0.20569   0.32398   1.000
    C45     C    0.91939   0.21502   0.40247   1.000
    O46     O    0.85533   0.19152   0.31473   1.000
    O47     O    0.89395   0.21063   0.47046   1.000
    O48     O    0.93998   0.20569   0.32398   1.000
    C49     C    0.58062   0.78500   0.59741   1.000
    O50     O    0.64469   0.80850   0.68519   1.000
    O51     O    0.60607   0.78939   0.52947   1.000
    O52     O    0.56002   0.79432   0.67595   1.000
    C53     C    0.58437   0.96879   0.26260   1.000
    O54     O    0.61009   0.91207   0.30470   1.000
    O55     O    0.56132   0.04519   0.23253   1.000
    O56     O    0.64725   0.03861   0.22977   1.000
    C57     C    0.91911   0.59759   0.78488   1.000
    O58     O    0.85511   0.68527   0.80841   1.000
    O59     O    0.89372   0.52954   0.78929   1.000
    O60     O    0.93976   0.67609   0.79422   1.000
    C61     C    0.31769   0.96146   0.03856   1.000
    O62     O    0.29518   0.97427   0.02572   1.000
    O63     O    0.30357   0.02425   0.08524   1.000
    O64     O    0.30354   0.91475   0.97577   1.000
    C65     C    0.41574   0.26230   0.96870   1.000
    O66     O    0.39002   0.30449   0.91206   1.000
    O67     O    0.43882   0.23229   0.04516   1.000
    O68     O    0.35289   0.22967   0.03859   1.000
    C69     C    0.08437   0.96879   0.26260   1.000
    O70     O    0.11009   0.91207   0.30470   1.000
    O71     O    0.14725   0.03861   0.22977   1.000
    O72     O    0.06130   0.04519   0.23253   1.000
    C73     C    0.08427   0.73771   0.03122   1.000
    O74     O    0.10999   0.69552   0.08787   1.000
    O75     O    0.14712   0.77033   0.96135   1.000
    O76     O    0.06119   0.76771   0.95480   1.000
    C77     C    0.58428   0.73771   0.03122   1.000
    O78     O    0.64713   0.77033   0.96135   1.000
    O79     O    0.56119   0.76771   0.95480   1.000
    O80     O    0.60999   0.69552   0.08787   1.000
    C81     C    0.53998   0.68803   0.31175   1.000
    O82     O    0.57164   0.71723   0.32694   1.000
    O83     O    0.57165   0.67293   0.28257   1.000
    C84     C    0.81770   0.96146   0.03855   1.000
    O85     O    0.79519   0.97428   0.02573   1.000
    O86     O    0.80358   0.02426   0.08524   1.000
    O87     O    0.80355   0.91476   0.97577   1.000
    C88     C    0.03997   0.68803   0.31175   1.000
    O89     O    0.07164   0.67293   0.28257   1.000
    O90     O    0.07163   0.71723   0.32694   1.000
    C91     C    0.91574   0.26230   0.96870   1.000
    O92     O    0.89002   0.30449   0.91206   1.000
    O93     O    0.93881   0.23229   0.04516   1.000
    O94     O    0.85289   0.22967   0.03859   1.000
    C95     C    0.41911   0.59759   0.78482   1.000
    O96     O    0.35511   0.68527   0.80838   1.000
    O97     O    0.43975   0.67609   0.79419   1.000
    O98     O    0.39372   0.52954   0.78914   1.000
    C99     C    0.46004   0.31196   0.68825   1.000
    O100    O    0.42837   0.32706   0.71740   1.000
    O101    O    0.42838   0.28276   0.67306   1.000
    C102    C    0.18232   0.03854   0.96141   1.000
    O103    O    0.19643   0.97575   0.91473   1.000
    O104    O    0.20482   0.02572   0.97422   1.000
    O105    O    0.19646   0.08525   0.02420   1.000
    C106    C    0.68232   0.03854   0.96141   1.000
    O107    O    0.69643   0.97575   0.91473   1.000
    O108    O    0.70482   0.02572   0.97425   1.000
    O109    O    0.69646   0.08524   0.02418   1.000
    C110    C    0.08062   0.78500   0.59741   1.000
    O111    O    0.10607   0.78939   0.52947   1.000
    O112    O    0.14468   0.80850   0.68519   1.000
    O113    O    0.06002   0.79432   0.67595   1.000
    C114    C    0.91564   0.03121   0.73737   1.000
    O115    O    0.93870   0.95481   0.76745   1.000
    O116    O    0.85277   0.96139   0.77020   1.000
    O117    O    0.88993   0.08794   0.69527   1.000
    C118    C    0.08090   0.40242   0.21508   1.000
    O119    O    0.06024   0.32392   0.20575   1.000
    O120    O    0.14490   0.31474   0.19155   1.000
    O121    O    0.10629   0.47047   0.21066   1.000
loop_
    _geom_bond_atom_site_label_1
    _geom_bond_atom_site_label_2
    _geom_bond_distance
    _geom_bond_site_symmetry_2
    _ccdc_geom_bond_type
    N16    O17       1.13998      .   S
    Zr1    O17       2.07066      .   S
    N16    O18       1.14023      .   S
    Zr7    O18       2.07146      .   S
    N19    O20       1.14017      .   S
    Zr3    O20       2.07155      .   S
    N19    O21       1.14003      .   S
    Zr5    O21       2.07087      .   S
    N22    O23       1.14017      .   S
    Zr2    O23       2.07154      .   S
    N22    O24       1.14003      .   S
    Zr4    O24       2.07086      .   S
    N25    O26       1.14023      .   S
    Zr6    O26       2.07147      .   S
    N25    O27       1.13998      .   S
    Zr0    O27       2.07067      .   S
    C30    O31       0.97333      .   S
    Zr6    O31       1.94890      .   S
    C30    O32       1.46763  1_545   S
    Zr8    O32       2.54146      .   S
    C30    O33       1.10490  1_545   S
    Zr13   O33       2.07097      .   S
    C34    O35       0.64510      .   S
    Zr1    O35       1.59800      .   S
    C34    O36       0.64508      .   S
    Zr7    O36       1.59804      .   S
    C37    O38       1.46498      .   S
    Zr11   O38       2.53002      .   S
    C37    O39       1.00424      .   S
    Zr5    O39       1.98788      .   S
    C37    O40       1.09781      .   S
    Zr15   O40       2.08416      .   S
    C41    O42       1.46501      .   S
    Zr10   O42       2.53014      .   S
    C41    O43       1.00457      .   S
    Zr6    O43       1.98873      .   S
    C41    O44       1.09822      .   S
    Zr15   O44       2.08465      .   S
    C45    O46       1.46499      .   S
    Zr11   O46       2.53012      .   S
    C45    O47       1.00456      .   S
    Zr7    O47       1.98872      .   S
    C45    O48       1.09813      .   S
    Zr14   O48       2.08428  1_455   S
    C49    O50       1.46544      .   S
    Zr9    O50       2.53054      .   S
    C49    O51       1.00392      .   S
    Zr3    O51       1.98805      .   S
    C49    O52       1.09879      .   S
    Zr13   O52       2.08535      .   S
    C53    O54       0.97333      .   S
    Zr3    O54       1.94909      .   S
    C53    O55       1.10485  1_565   S
    Zr15   O55       2.07091      .   S
    C53    O56       1.46763  1_565   S
    Zr11   O56       2.54153      .   S
    C57    O58       1.46494      .   S
    Zr9    O58       2.53004      .   S
    C57    O59       1.00422      .   S
    Zr1    O59       1.98788      .   S
    C57    O60       1.09781      .   S
    Zr12   O60       2.08415      .   S
    C61    O62       0.38783      .   S
    C29    O62       0.77858  1_546   S
    C61    O63       1.02195  1_565   S
    Zr10   O63       2.06713      .   S
    C61    O64       1.02179  1_554   S
    Zr8    O64       2.06637      .   S
    C65    O66       0.97308      .   S
    Zr0    O66       1.94925      .   S
    C65    O67       1.10536  1_556   S
    Zr15   O67       2.07132      .   S
    C65    O68       1.46755  1_556   S
    Zr10   O68       2.54143      .   S
    C69    O70       0.97333      .   S
    Zr2    O70       1.94909      .   S
    C69    O71       1.46761  1_565   S
    Zr10   O71       2.54151      .   S
    C69    O72       1.10490  1_565   S
    Zr14   O72       2.07115      .   S
    C73    O74       0.97327      .   S
    Zr4    O74       1.94908      .   S
    C73    O75       1.46723  1_554   S
    Zr8    O75       2.54119      .   S
    C73    O76       1.10488  1_554   S
    Zr12   O76       2.07083  1_655   S
    C77    O78       1.46725  1_554   S
    Zr9    O78       2.54121      .   S
    C77    O79       1.10489  1_554   S
    Zr13   O79       2.07086      .   S
    C77    O80       0.97328      .   S
    Zr5    O80       1.94908      .   S
    C81    O82       0.64508      .   S
    Zr3    O82       1.59803      .   S
    C81    O83       0.64529      .   S
    Zr5    O83       1.59854      .   S
    C84    O85       0.38779      .   S
    C28    O85       0.77844  1_546   S
    C84    O86       1.02195  1_565   S
    Zr11   O86       2.06713      .   S
    C84    O87       1.02177  1_554   S
    Zr9    O87       2.06639      .   S
    C88    O89       0.64529      .   S
    Zr4    O89       1.59854      .   S
    C88    O90       0.64508      .   S
    Zr2    O90       1.59803      .   S
    C91    O92       0.97307      .   S
    Zr1    O92       1.94925      .   S
    C91    O93       1.10531  1_556   S
    Zr14   O93       2.07107  1_455   S
    C91    O94       1.46753  1_556   S
    Zr11   O94       2.54142      .   S
    C95    O96       1.46504      .   S
    Zr8    O96       2.53013      .   S
    C95    O97       1.09782      .   S
    Zr13   O97       2.08416      .   S
    C95    O98       1.00408      .   S
    Zr0    O98       1.98803      .   S
    C99    O100      0.64510      .   S
    Zr0    O100      1.59800      .   S
    C99    O101      0.64508      .   S
    Zr6    O101      1.59804      .   S
    C102   O103      1.02187  1_545   S
    Zr8    O103      2.06707      .   S
    C102   O104      0.38771      .   S
    C29    O104      0.77845      .   S
    C102   O105      1.02188  1_556   S
    Zr10   O105      2.06640      .   S
    C106   O107      1.02186  1_545   S
    Zr9    O107      2.06707      .   S
    C106   O108      0.38786      .   S
    C28    O108      0.77850      .   S
    C106   O109      1.02168  1_556   S
    Zr11   O109      2.06664      .   S
    C110   O111      1.00391      .   S
    Zr2    O111      1.98804      .   S
    C110   O112      1.46542      .   S
    Zr8    O112      2.53053      .   S
    C110   O113      1.09879      .   S
    Zr12   O113      2.08530  1_655   S
    C114   O115      1.10491  1_545   S
    Zr12   O115      2.07099      .   S
    C114   O116      1.46762  1_545   S
    Zr9    O116      2.54145      .   S
    C114   O117      0.97331      .   S
    Zr7    O117      1.94888      .   S
    C118   O119      1.09790      .   S
    Zr14   O119      2.08450      .   S
    C118   O120      1.46495      .   S
    Zr10   O120      2.52999      .   S
    C118   O121      1.00422      .   S
    Zr4    O121      1.98786      .   S
