# CIF file generated by openbabel 2.4.90, see http://openbabel.sf.net
data_I
_chemical_name_common ''
_cell_length_a 9.898
_cell_length_b 16.558
_cell_length_c 12.187
_cell_angle_alpha 89.965
_cell_angle_beta 89.971
_cell_angle_gamma 91.592
_space_group_name_H-M_alt 'P 1'
_space_group_name_Hall 'P 1'
loop_
    _symmetry_equiv_pos_as_xyz
    x,y,z
loop_
    _atom_site_label
    _atom_site_type_symbol
    _atom_site_fract_x
    _atom_site_fract_y
    _atom_site_fract_z
    _atom_site_occupancy
    P0      P    0.49512   0.38377   0.48173   1.000
    P1      P    0.49511   0.88375   0.48173   1.000
    P2      P    0.99510   0.38377   0.48173   1.000
    P3      P    0.99509   0.88376   0.48173   1.000
    P4      P    0.00499   0.11628   0.98170   1.000
    P5      P    0.00498   0.61627   0.98170   1.000
    P6      P    0.50497   0.11628   0.98170   1.000
    P7      P    0.50496   0.61627   0.98170   1.000
    P8      P    0.00486   0.11621   0.51823   1.000
    P9      P    0.00486   0.61620   0.51823   1.000
    P10     P    0.50485   0.11621   0.51823   1.000
    P11     P    0.50484   0.61620   0.51823   1.000
    P12     P    0.49499   0.38370   0.01827   1.000
    P13     P    0.49499   0.88369   0.01827   1.000
    P14     P    0.99498   0.38370   0.01827   1.000
    P15     P    0.99497   0.88369   0.01827   1.000
    H16     H    0.35140   0.27157   0.52418   1.000
    H17     H    0.35140   0.77155   0.52418   1.000
    H18     H    0.85138   0.27157   0.52418   1.000
    H19     H    0.85138   0.77155   0.52418   1.000
    H20     H    0.48607   0.28222   0.61858   1.000
    H21     H    0.48606   0.78221   0.61858   1.000
    H22     H    0.98605   0.28222   0.61858   1.000
    H23     H    0.98605   0.78220   0.61858   1.000
    H24     H    0.14852   0.22845   0.02437   1.000
    H25     H    0.14852   0.72844   0.02436   1.000
    H26     H    0.64850   0.22845   0.02436   1.000
    H27     H    0.64850   0.72844   0.02437   1.000
    H28     H    0.01358   0.21772   0.11863   1.000
    H29     H    0.01358   0.71770   0.11863   1.000
    H30     H    0.51357   0.21772   0.11863   1.000
    H31     H    0.51356   0.71770   0.11863   1.000
    H32     H    0.14858   0.22842   0.47579   1.000
    H33     H    0.14857   0.72840   0.47578   1.000
    H34     H    0.64856   0.22842   0.47578   1.000
    H35     H    0.64855   0.72840   0.47579   1.000
    H36     H    0.01391   0.21776   0.38139   1.000
    H37     H    0.01390   0.71775   0.38130   1.000
    H38     H    0.51389   0.21776   0.38139   1.000
    H39     H    0.51389   0.71775   0.38139   1.000
    H40     H    0.35146   0.27153   0.97560   1.000
    H41     H    0.35145   0.77152   0.97560   1.000
    H42     H    0.85144   0.27153   0.97560   1.000
    H43     H    0.85144   0.77152   0.97560   1.000
    H44     H    0.48640   0.28227   0.88133   1.000
    H45     H    0.48639   0.78225   0.88130   1.000
    H46     H    0.98638   0.28227   0.88130   1.000
    H47     H    0.98638   0.78225   0.88133   1.000
    C48     C    0.46114   0.28238   0.53064   1.000
    C49     C    0.46114   0.78237   0.53065   1.000
    C50     C    0.96112   0.28238   0.53065   1.000
    C51     C    0.96112   0.78237   0.53064   1.000
    C52     C    0.03877   0.21760   0.03073   1.000
    C53     C    0.03876   0.71759   0.03073   1.000
    C54     C    0.53875   0.21760   0.03073   1.000
    C55     C    0.53875   0.71759   0.03073   1.000
    C56     C    0.03884   0.21760   0.46932   1.000
    C57     C    0.03883   0.71759   0.46932   1.000
    C58     C    0.53882   0.21760   0.46932   1.000
    C59     C    0.53881   0.71759   0.46932   1.000
    C60     C    0.46121   0.28238   0.96923   1.000
    C61     C    0.46120   0.78237   0.96924   1.000
    C62     C    0.96119   0.28238   0.96924   1.000
    C63     C    0.96119   0.78237   0.96923   1.000
    O64     O    0.39936   0.44058   0.54057   1.000
    O65     O    0.39936   0.94056   0.54050   1.000
    O66     O    0.89935   0.44058   0.54050   1.000
    O67     O    0.89934   0.94056   0.54057   1.000
    O68     O    0.14462   0.40368   0.50383   1.000
    O69     O    0.14462   0.90367   0.50383   1.000
    O70     O    0.64460   0.40368   0.50383   1.000
    O71     O    0.64460   0.90367   0.50383   1.000
    O72     O    0.46906   0.38019   0.35445   1.000
    O73     O    0.46905   0.88017   0.35445   1.000
    O74     O    0.96904   0.38018   0.35445   1.000
    O75     O    0.96904   0.88017   0.35445   1.000
    O76     O    0.10060   0.05939   0.04050   1.000
    O77     O    0.10059   0.55938   0.04058   1.000
    O78     O    0.60058   0.05939   0.04058   1.000
    O79     O    0.60057   0.55938   0.04050   1.000
    O80     O    0.35543   0.09629   0.00364   1.000
    O81     O    0.35543   0.59627   0.00360   1.000
    O82     O    0.85542   0.09629   0.00363   1.000
    O83     O    0.85541   0.59627   0.00364   1.000
    O84     O    0.03153   0.12017   0.85446   1.000
    O85     O    0.03151   0.62016   0.85446   1.000
    O86     O    0.53150   0.12017   0.85446   1.000
    O87     O    0.53150   0.62016   0.85446   1.000
    O88     O    0.10062   0.05941   0.45939   1.000
    O89     O    0.10061   0.55939   0.45939   1.000
    O90     O    0.60060   0.05941   0.45939   1.000
    O91     O    0.60059   0.55939   0.45939   1.000
    O92     O    0.35536   0.09630   0.49614   1.000
    O93     O    0.35535   0.59629   0.49614   1.000
    O94     O    0.85534   0.09630   0.49614   1.000
    O95     O    0.85533   0.59629   0.49614   1.000
    O96     O    0.03092   0.11979   0.64552   1.000
    O97     O    0.03092   0.61979   0.64550   1.000
    O98     O    0.53090   0.11980   0.64550   1.000
    O99     O    0.53089   0.61978   0.64552   1.000
    O100    O    0.39938   0.44059   0.95938   1.000
    O101    O    0.39937   0.94058   0.95938   1.000
    O102    O    0.89936   0.44059   0.95938   1.000
    O103    O    0.89936   0.94058   0.95938   1.000
    O104    O    0.14455   0.40370   0.99633   1.000
    O105    O    0.14454   0.90368   0.99633   1.000
    O106    O    0.64453   0.40370   0.99633   1.000
    O107    O    0.64452   0.90368   0.99633   1.000
    O108    O    0.46845   0.37981   0.14550   1.000
    O109    O    0.46846   0.87980   0.14550   1.000
    O110    O    0.96844   0.37982   0.14550   1.000
    O111    O    0.96843   0.87980   0.14550   1.000
loop_
    _geom_bond_atom_site_label_1
    _geom_bond_atom_site_label_2
    _geom_bond_distance
    _geom_bond_site_symmetry_2
    _ccdc_geom_bond_type
    O81    P7        1.53095  1_554   S
    O82    P4        1.53135  1_654   S
    O80    P6        1.53103  1_554   S
    O83    P5        1.53136  1_654   S
    P15    O111      1.57350      .   S
    P15    O103      1.53213  1_554   S
    P15    C63       1.80385  1_554   S
    P15    O105      1.53137  1_654   S
    P14    O110      1.57349      .   S
    P14    O102      1.53213  1_554   S
    P14    C62       1.80383  1_554   S
    P14    O104      1.53136  1_654   S
    P13    O109      1.57348      .   S
    P13    O101      1.53213  1_554   S
    P13    C61       1.80383  1_554   S
    P13    O107      1.53103  1_554   S
    P12    O108      1.57350      .   S
    P12    O100      1.53212  1_554   S
    P12    C60       1.80387  1_554   S
    P12    O106      1.53103  1_554   S
    H25    C53       1.09884      .   S
    H26    C54       1.09884      .   S
    H24    C52       1.09883      .   S
    H27    C55       1.09883      .   S
    C52    H28       1.09975      .   S
    C52    C62       1.53198  1_454   S
    C52    P4        1.80383  1_554   S
    C53    H29       1.09975      .   S
    C53    C63       1.53204  1_454   S
    C53    P5        1.80383  1_554   S
    C55    H31       1.09976      .   S
    C55    C61       1.53180  1_554   S
    C55    P7        1.80381  1_554   S
    C54    H30       1.09975      .   S
    C54    C60       1.53186  1_554   S
    C54    P6        1.80383  1_554   S
    O79    P7        1.53162  1_554   S
    O76    P4        1.53162  1_554   S
    O77    P5        1.53207  1_554   S
    O78    P6        1.53207  1_554   S
    O73    P1        1.57348      .   S
    O75    P3        1.57346      .   S
    O74    P2        1.57348      .   S
    O72    P0        1.57347      .   S
    H37    C57       1.10085      .   S
    H36    C56       1.09978      .   S
    H38    C58       1.09978      .   S
    H39    C59       1.09978      .   S
    O88    P8        1.53194      .   S
    O89    P9        1.53195      .   S
    O90    P10       1.53194      .   S
    O91    P11       1.53194      .   S
    C59    H35       1.09883      .   S
    C59    P11       1.80386      .   S
    C59    C49       1.53185      .   S
    C57    H33       1.09882      .   S
    C57    P9        1.80386      .   S
    C57    C51       1.53196  1_455   S
    C58    H34       1.09882      .   S
    C58    P10       1.80385      .   S
    C58    C48       1.53179      .   S
    C56    H32       1.09884      .   S
    C56    P8        1.80387      .   S
    C56    C50       1.53203  1_455   S
    P0     O70       1.53100      .   S
    P0     C48       1.80386      .   S
    P0     O64       1.53195      .   S
    P1     O71       1.53102      .   S
    P1     C49       1.80388      .   S
    P1     O65       1.53155      .   S
    P2     O68       1.53135  1_655   S
    P2     C50       1.80388      .   S
    P2     O66       1.53155      .   S
    P3     O69       1.53135  1_655   S
    P3     C51       1.80386      .   S
    P3     O67       1.53195      .   S
    O92    P10       1.53099      .   S
    O93    P11       1.53098      .   S
    O94    P8        1.53132  1_655   S
    O95    P9        1.53132  1_655   S
    P11    O99       1.57358      .   S
    P8     O96       1.57358      .   S
    P10    O98       1.57335      .   S
    P9     O97       1.57335      .   S
    H16    C48       1.09882      .   S
    H17    C49       1.09884      .   S
    H18    C50       1.09884      .   S
    H19    C51       1.09883      .   S
    C48    H20       1.09990      .   S
    C51    H23       1.09990      .   S
    C49    H21       1.09978      .   S
    C50    H22       1.09978      .   S
    O84    P4        1.57362      .   S
    O85    P5        1.57361      .   S
    O86    P6        1.57361      .   S
    O87    P7        1.57362      .   S
    H46    C62       1.10023      .   S
    H45    C61       1.10023      .   S
    H44    C60       1.09975      .   S
    H47    C63       1.09976      .   S
    C60    H40       1.09884      .   S
    C63    H43       1.09884      .   S
    C61    H41       1.09883      .   S
    C62    H42       1.09883      .   S
