# CIF file generated by openbabel 2.4.90, see http://openbabel.sf.net
data_I
_chemical_name_common ''
_cell_length_a 15.604
_cell_length_b 18.904
_cell_length_c 19.853
_cell_angle_alpha 88.505
_cell_angle_beta 90.614
_cell_angle_gamma 90.146
_space_group_name_H-M_alt 'P 1'
_space_group_name_Hall 'P 1'
loop_
    _symmetry_equiv_pos_as_xyz
    x,y,z
loop_
    _atom_site_label
    _atom_site_type_symbol
    _atom_site_fract_x
    _atom_site_fract_y
    _atom_site_fract_z
    _atom_site_occupancy
    Zn0     Zn   0.38968   0.55848   0.48537   1.000
    Zn1     Zn   0.10798   0.05872   0.48593   1.000
    Zn2     Zn   0.61031   0.44151   0.51465   1.000
    Zn3     Zn   0.89201   0.94126   0.51409   1.000
    C4      C    0.29364   0.67804   0.48356   1.000
    C5      C    0.09216   0.90344   0.50305   1.000
    C6      C    0.79401   0.82234   0.51408   1.000
    O7      O    0.01815   0.91061   0.52767   1.000
    O8      O    0.14131   0.95470   0.48410   1.000
    O9      O    0.36727   0.70400   0.47492   1.000
    C10     C    0.59283   0.59555   0.49787   1.000
    C11     C    0.70634   0.32195   0.51646   1.000
    C12     C    0.90783   0.09654   0.49697   1.000
    C13     C    0.20597   0.17764   0.48594   1.000
    C14     C    0.40715   0.40443   0.50215   1.000
    O15     O    0.27729   0.61112   0.48894   1.000
    O16     O    0.51775   0.58660   0.47478   1.000
    O17     O    0.64426   0.54531   0.51608   1.000
    O18     O    0.86770   0.79628   0.52275   1.000
    O19     O    0.77806   0.88925   0.50843   1.000
    O20     O    0.98184   0.08938   0.47235   1.000
    O21     O    0.85868   0.04528   0.51586   1.000
    O22     O    0.63271   0.29599   0.52500   1.000
    O23     O    0.72271   0.38887   0.51107   1.000
    O24     O    0.48223   0.41339   0.52524   1.000
    O25     O    0.35572   0.45467   0.48393   1.000
    O26     O    0.13228   0.20370   0.47727   1.000
    O27     O    0.22192   0.11074   0.49158   1.000
    Ts28    Ts   0.39564   0.56146   0.52157   1.000
    Ts29    Ts   0.39081   0.55981   0.44846   1.000
    Ts30    Ts   0.10231   0.06154   0.52211   1.000
    Ts31    Ts   0.10744   0.06011   0.44904   1.000
    Ts32    Ts   0.60434   0.43852   0.47845   1.000
    Ts33    Ts   0.60917   0.44017   0.55156   1.000
    Ts34    Ts   0.89768   0.93844   0.47791   1.000
    Ts35    Ts   0.89255   0.93987   0.55098   1.000
    Og36    Og   0.26877   0.69400   0.48555   1.000
    Og37    Og   0.10359   0.87935   0.50164   1.000
    Og38    Og   0.76902   0.80631   0.51229   1.000
    Og39    Og   0.60402   0.61981   0.49897   1.000
    Og40    Og   0.73121   0.30598   0.51447   1.000
    Og41    Og   0.89639   0.12063   0.49838   1.000
    Og42    Og   0.23096   0.19367   0.48772   1.000
    Og43    Og   0.39596   0.38018   0.50105   1.000
loop_
    _geom_bond_atom_site_label_1
    _geom_bond_atom_site_label_2
    _geom_bond_distance
    _geom_bond_site_symmetry_2
    _ccdc_geom_bond_type
    O20    Zn1       2.06627  1_655   S
    O20    C12       1.26774      .   S
    O16    Zn0       2.07809      .   S
    O16    C10       1.26605      .   S
    O9     C4        1.25982      .   S
    O26    C13       1.26049      .   S
    C4     O15       1.29184      .   S
    O25    Zn0       2.03213      .   S
    O25    C14       1.28706      .   S
    O8     Zn1       2.03664  1_565   S
    O8     C5        1.28527      .   S
    Zn0    O15       2.02139      .   S
    Zn1    O27       2.03300      .   S
    C13    O27       1.29147      .   S
    C12    O21       1.28494      .   S
    C10    O17       1.28705      .   S
    C14    O24       1.26603      .   S
    C5     O7        1.26773      .   S
    O19    C6        1.29149      .   S
    O19    Zn3       2.03302      .   S
    O23    Zn2       2.02147      .   S
    O23    C11       1.29184      .   S
    C6     O18       1.26049      .   S
    Zn3    O21       2.03655  1_565   S
    Zn3    O7        2.06618  1_655   S
    Zn2    O17       2.03205      .   S
    Zn2    O24       2.07813      .   S
    C11    O22       1.25957      .   S
    Zn0    Ts28      0.72733      .   S
    Zn0    Ts29      0.73295      .   S
    Zn1    Ts30      0.72809      .   S
    Zn1    Ts31      0.73219      .   S
    Zn2    Ts32      0.72735      .   S
    Zn2    Ts33      0.73296      .   S
    Zn3    Ts34      0.72809      .   S
    Zn3    Ts35      0.73219      .   S
    C4     Og36      0.49475      .   S
    C5     Og37      0.49112      .   S
    C6     Og38      0.49475      .   S
    C10    Og39      0.49120      .   S
    C11    Og40      0.49475      .   S
    C12    Og41      0.49112      .   S
    C13    Og42      0.49475      .   S
    C14    Og43      0.49121      .   S
