# CIF file generated by openbabel 2.4.90, see http://openbabel.sf.net
data_I
_chemical_name_common ''
_cell_length_a 15.604
_cell_length_b 18.904
_cell_length_c 19.853
_cell_angle_alpha 88.505
_cell_angle_beta 90.614
_cell_angle_gamma 90.146
_space_group_name_H-M_alt 'P 1'
_space_group_name_Hall 'P 1'
loop_
    _symmetry_equiv_pos_as_xyz
    x,y,z
loop_
    _atom_site_label
    _atom_site_type_symbol
    _atom_site_fract_x
    _atom_site_fract_y
    _atom_site_fract_z
    _atom_site_occupancy
    Zn0     Zn   0.38968   0.55848   0.48537   1.000
    Zn1     Zn   0.10798   0.05872   0.48593   1.000
    Zn2     Zn   0.61031   0.44151   0.51465   1.000
    Zn3     Zn   0.89201   0.94126   0.51409   1.000
    C4      C    0.29364   0.67804   0.48356   1.000
    C5      C    0.09216   0.90344   0.50305   1.000
    C6      C    0.79401   0.82234   0.51408   1.000
    O7      O    0.01815   0.91061   0.52767   1.000
    O8      O    0.14131   0.95470   0.48410   1.000
    O9      O    0.36727   0.70400   0.47492   1.000
    C10     C    0.59283   0.59555   0.49787   1.000
    C11     C    0.70634   0.32195   0.51646   1.000
    C12     C    0.90783   0.09654   0.49697   1.000
    C13     C    0.20597   0.17764   0.48594   1.000
    C14     C    0.40715   0.40443   0.50215   1.000
    O15     O    0.27729   0.61112   0.48894   1.000
    O16     O    0.51775   0.58660   0.47478   1.000
    O17     O    0.64426   0.54531   0.51608   1.000
    O18     O    0.86770   0.79628   0.52275   1.000
    O19     O    0.77806   0.88925   0.50843   1.000
    O20     O    0.98184   0.08938   0.47235   1.000
    O21     O    0.85868   0.04528   0.51586   1.000
    O22     O    0.63271   0.29599   0.52500   1.000
    O23     O    0.72271   0.38887   0.51107   1.000
    O24     O    0.48223   0.41339   0.52524   1.000
    O25     O    0.35572   0.45467   0.48393   1.000
    O26     O    0.13228   0.20370   0.47727   1.000
    O27     O    0.22192   0.11074   0.49158   1.000
loop_
    _geom_bond_atom_site_label_1
    _geom_bond_atom_site_label_2
    _geom_bond_distance
    _geom_bond_site_symmetry_2
    _ccdc_geom_bond_type
    O20    Zn1       2.06627  1_655   S
    O20    C12       1.26774      .   S
    O16    Zn0       2.07809      .   S
    O16    C10       1.26605      .   S
    O9     C4        1.25982      .   S
    O26    C13       1.26049      .   S
    C4     O15       1.29184      .   S
    O25    Zn0       2.03213      .   S
    O25    C14       1.28706      .   S
    O8     Zn1       2.03664  1_565   S
    O8     C5        1.28527      .   S
    Zn0    O15       2.02139      .   S
    Zn1    O27       2.03300      .   S
    C13    O27       1.29147      .   S
    C12    O21       1.28494      .   S
    C10    O17       1.28705      .   S
    C14    O24       1.26603      .   S
    C5     O7        1.26773      .   S
    O19    C6        1.29149      .   S
    O19    Zn3       2.03302      .   S
    O23    Zn2       2.02147      .   S
    O23    C11       1.29184      .   S
    C6     O18       1.26049      .   S
    Zn3    O21       2.03655  1_565   S
    Zn3    O7        2.06618  1_655   S
    Zn2    O17       2.03205      .   S
    Zn2    O24       2.07813      .   S
    C11    O22       1.25957      .   S
