# CIF file generated by openbabel 2.4.90, see http://openbabel.sf.net
data_I
_chemical_name_common ''
_cell_length_a 15.604
_cell_length_b 18.904
_cell_length_c 19.853
_cell_angle_alpha 88.505
_cell_angle_beta 90.614
_cell_angle_gamma 90.146
_space_group_name_H-M_alt 'P 1'
_space_group_name_Hall 'P 1'
loop_
    _symmetry_equiv_pos_as_xyz
    x,y,z
loop_
    _atom_site_label
    _atom_site_type_symbol
    _atom_site_fract_x
    _atom_site_fract_y
    _atom_site_fract_z
    _atom_site_occupancy
    N0      N    0.59587   0.42341   0.01624   1.000
    N1      N    0.40411   0.57657   0.98375   1.000
    N2      N    0.09568   0.07665   0.98426   1.000
    N3      N    0.36861   0.25344   0.50257   1.000
    N4      N    0.90431   0.92333   0.01573   1.000
    N5      N    0.13178   0.75299   0.50185   1.000
    N6      N    0.86821   0.24700   0.49817   1.000
    N7      N    0.63137   0.74654   0.49732   1.000
    Zr8     Zr   0.99999   0.99999   0.50000   1.000
    O9      O    0.84697   0.88621   0.50218   1.000
    O10     O    0.93972   0.09491   0.49932   1.000
    O11     O    0.15301   0.11378   0.49780   1.000
    O12     O    0.05071   0.03436   0.35372   1.000
    O13     O    0.04878   0.03490   0.63112   1.000
    O14     O    0.94928   0.96562   0.64629   1.000
    O15     O    0.95121   0.96509   0.36889   1.000
    O16     O    0.06027   0.90507   0.50070   1.000
    Zr17    Zr   0.49999   0.49999   0.50000   1.000
    O18     O    0.65296   0.38624   0.50291   1.000
    O19     O    0.34703   0.61374   0.49710   1.000
    O20     O    0.55112   0.46573   0.64657   1.000
    O21     O    0.54930   0.46510   0.36915   1.000
    O22     O    0.56024   0.59461   0.49921   1.000
    O23     O    0.43974   0.40537   0.50077   1.000
    O24     O    0.45068   0.53488   0.63086   1.000
    O25     O    0.44887   0.53426   0.35344   1.000
loop_
    _geom_bond_atom_site_label_1
    _geom_bond_atom_site_label_2
    _geom_bond_distance
    _geom_bond_site_symmetry_2
    _ccdc_geom_bond_type
    Zr8    O9        3.20958      .   S
    N7     O9        4.27316      .   S
    Zr8    O10       2.02774  1_565   S
    N6     O10       3.08599      .   S
    Zr8    O11       3.20956  1_665   S
    N3     O11       4.27303      .   S
    Zr8    O12       3.07106  1_665   S
    N2     O12       7.39810  1_556   S
    Zr8    O13       2.79914  1_665   S
    N2     O13       7.10546      .   S
    Zr8    O14       3.07104      .   S
    N4     O14       7.39783  1_554   S
    Zr8    O15       2.79917      .   S
    N4     O15       7.10573      .   S
    Zr8    O16       2.02775  1_655   S
    N5     O16       3.08602      .   S
    Zr17   O18       3.21574      .   S
    N6     O18       4.27600      .   S
    Zr17   O19       3.21575      .   S
    N5     O19       4.27598      .   S
    Zr17   O20       3.06220      .   S
    N0     O20       7.38774  1_554   S
    Zr17   O21       2.81255      .   S
    N0     O21       7.11594      .   S
    Zr17   O22       2.01840      .   S
    N7     O22       3.07576      .   S
    Zr17   O23       2.01844      .   S
    N3     O23       3.07583      .   S
    Zr17   O24       2.81257      .   S
    N1     O24       7.11569      .   S
    Zr17   O25       3.06217      .   S
    N1     O25       7.38797  1_556   S
