# CIF file generated by openbabel 2.4.90, see http://openbabel.sf.net
data_I
_chemical_name_common ''
_cell_length_a 10.9615
_cell_length_b 12.758
_cell_length_c 20.066
_cell_angle_alpha 90.035
_cell_angle_beta 90.047
_cell_angle_gamma 90.126
_space_group_name_H-M_alt 'P 1'
_space_group_name_Hall 'P 1'
loop_
    _symmetry_equiv_pos_as_xyz
    x,y,z
loop_
    _atom_site_label
    _atom_site_type_symbol
    _atom_site_fract_x
    _atom_site_fract_y
    _atom_site_fract_z
    _atom_site_occupancy
    N0      N    0.20743   0.52489   0.62144   1.000
    N1      N    0.07468   0.23425   0.39778   1.000
    N2      N    0.79148   0.52485   0.87883   1.000
    N3      N    0.92579   0.23441   0.10194   1.000
    N4      N    0.70750   0.97501   0.87883   1.000
    N5      N    0.57465   0.26560   0.10216   1.000
    N6      N    0.29162   0.97525   0.62123   1.000
    N7      N    0.42573   0.26565   0.39790   1.000
    N8      N    0.79220   0.47506   0.37856   1.000
    N9      N    0.92530   0.76569   0.60215   1.000
    N10     N    0.20837   0.47521   0.12125   1.000
    N11     N    0.07418   0.76569   0.89799   1.000
    N12     N    0.29224   0.02505   0.12133   1.000
    N13     N    0.42519   0.73451   0.89786   1.000
    N14     N    0.70808   0.02471   0.37878   1.000
    N15     N    0.57412   0.73431   0.60213   1.000
    Zr16    Zr   0.74964   0.24999   0.96502   1.000
    O17     O    0.82686   0.25379   0.00913   1.000
    O18     O    0.78071   0.35172   0.93398   1.000
    O19     O    0.67279   0.24619   0.00922   1.000
    O20     O    0.71844   0.14821   0.93398   1.000
    Zr21    Zr   0.24971   0.24997   0.53499   1.000
    O22     O    0.32688   0.24624   0.49080   1.000
    O23     O    0.28078   0.14833   0.56602   1.000
    O24     O    0.17287   0.25369   0.49078   1.000
    O25     O    0.21849   0.35169   0.56613   1.000
    Zr26    Zr   0.37450   0.75007   0.75009   1.000
    O27     O    0.32564   0.82680   0.69770   1.000
    O28     O    0.29839   0.67339   0.69777   1.000
    O29     O    0.57555   0.67331   0.80245   1.000
    O30     O    0.54843   0.82666   0.80245   1.000
    O31     O    0.21149   0.77013   0.79978   1.000
    O32     O    0.16270   0.77012   0.70041   1.000
    O33     O    0.41262   0.73004   0.79971   1.000
    O34     O    0.46144   0.72997   0.70037   1.000
    Zr35    Zr   0.12531   0.24995   0.24989   1.000
    O36     O    0.08720   0.22987   0.29955   1.000
    O37     O    0.03840   0.22993   0.20018   1.000
    O38     O    0.28839   0.27003   0.29963   1.000
    O39     O    0.33720   0.27002   0.20030   1.000
    O40     O    0.95134   0.32660   0.30222   1.000
    O41     O    0.92413   0.17318   0.30230   1.000
    O42     O    0.17426   0.32673   0.19755   1.000
    O43     O    0.20135   0.17338   0.19757   1.000
    Zr44    Zr   0.75006   0.74998   0.46500   1.000
    O45     O    0.78122   0.64827   0.43386   1.000
    O46     O    0.82698   0.74626   0.50919   1.000
    O47     O    0.71897   0.85163   0.43398   1.000
    O48     O    0.67292   0.75371   0.50921   1.000
    Zr49    Zr   0.25021   0.75010   0.03495   1.000
    O50     O    0.17302   0.74630   0.99082   1.000
    O51     O    0.21916   0.64836   0.06601   1.000
    O52     O    0.28137   0.85187   0.06605   1.000
    O53     O    0.32705   0.75391   0.99078   1.000
loop_
    _geom_bond_atom_site_label_1
    _geom_bond_atom_site_label_2
    _geom_bond_distance
    _geom_bond_site_symmetry_2
    _ccdc_geom_bond_type
    Zr16   O17       1.22505  1_556   S
    N3     O17       2.16872      .   S
    Zr16   O18       1.47919      .   S
    N2     O18       2.47379      .   S
    Zr16   O19       1.22454  1_556   S
    N5     O19       2.16813      .   S
    Zr16   O20       1.47909      .   S
    N4     O20       2.47339  1_565   S
    Zr21   O22       1.22692      .   S
    N7     O22       2.17094      .   S
    Zr21   O23       1.47923      .   S
    N6     O23       2.47407  1_565   S
    Zr21   O24       1.22377      .   S
    N1     O24       2.16730      .   S
    Zr21   O25       1.48085      .   S
    N0     O25       2.47542      .   S
    Zr26   O27       1.53406      .   S
    N6     O27       2.46694      .   S
    Zr26   O28       1.65803      .   S
    N0     O28       2.62961      .   S
    Zr26   O29       2.63176      .   S
    N2     O29       3.39935      .   S
    Zr26   O30       2.38346      .   S
    N4     O30       2.99134      .   S
    Zr26   O31       2.06326      .   S
    N11    O31       2.48124      .   S
    Zr26   O32       2.53939      .   S
    N9     O32       3.26393  1_655   S
    Zr26   O33       1.10954      .   S
    N13    O33       1.97515      .   S
    Zr26   O34       1.40404      .   S
    N15    O34       2.32785      .   S
    Zr35   O36       1.11057      .   S
    N1     O36       1.97688      .   S
    Zr35   O37       1.40184      .   S
    N3     O37       2.32582  1_655   S
    Zr35   O38       2.06202      .   S
    N7     O38       2.48054      .   S
    Zr35   O39       2.54009      .   S
    N5     O39       3.26567      .   S
    Zr35   O40       2.38865  1_455   S
    N8     O40       2.99868      .   S
    Zr35   O41       2.63131  1_455   S
    N14    O41       3.39729      .   S
    Zr35   O42       1.53315      .   S
    N10    O42       2.46448      .   S
    Zr35   O43       1.65981      .   S
    N12    O43       2.63087      .   S
    Zr44   O45       1.48070      .   S
    N8     O45       2.47527      .   S
    Zr44   O46       1.22397      .   S
    N9     O46       2.16748      .   S
    Zr44   O47       1.47920      .   S
    N14    O47       2.47407  1_545   S
    Zr44   O48       1.22699      .   S
    N15    O48       2.17100      .   S
    Zr49   O50       1.22513  1_554   S
    N11    O50       2.16872      .   S
    Zr49   O51       1.47932      .   S
    N10    O51       2.47475      .   S
    Zr49   O52       1.47941      .   S
    N12    O52       2.47431  1_545   S
    Zr49   O53       1.22413  1_554   S
    N13    O53       2.16765      .   S
