# CIF file generated by openbabel 2.4.90, see http://openbabel.sf.net
data_I
_chemical_name_common ''
_cell_length_a 14.594
_cell_length_b 16.877
_cell_length_c 17.459
_cell_angle_alpha 90.002
_cell_angle_beta 95.55
_cell_angle_gamma 90.028
_space_group_name_H-M_alt 'P 1'
_space_group_name_Hall 'P 1'
loop_
    _symmetry_equiv_pos_as_xyz
    x,y,z
loop_
    _atom_site_label
    _atom_site_type_symbol
    _atom_site_fract_x
    _atom_site_fract_y
    _atom_site_fract_z
    _atom_site_occupancy
    H0      H    0.29831   0.93136   0.42296   1.000
    H1      H    0.79830   0.93136   0.42296   1.000
    H2      H    0.46646   0.93384   0.44324   1.000
    H3      H    0.96644   0.93385   0.44324   1.000
    H4      H    0.40511   0.02334   0.46046   1.000
    H5      H    0.90509   0.02335   0.46046   1.000
    H6      H    0.11538   0.67273   0.42405   1.000
    H7      H    0.61537   0.67273   0.42405   1.000
    H8      H    0.12800   0.66252   0.32549   1.000
    H9      H    0.62799   0.66252   0.32549   1.000
    H10     H    0.10759   0.79206   0.53877   1.000
    H11     H    0.60758   0.79206   0.53877   1.000
    H12     H    0.36571   0.86193   0.65995   1.000
    H13     H    0.86570   0.86194   0.65995   1.000
    H14     H    0.22317   0.48545   0.18817   1.000
    H15     H    0.72315   0.48545   0.18817   1.000
    H16     H    0.20253   0.52578   0.35521   1.000
    H17     H    0.70252   0.52578   0.35521   1.000
    H18     H    0.17552   0.53668   0.45128   1.000
    H19     H    0.67550   0.53668   0.45128   1.000
    H20     H    0.44699   0.73162   0.48344   1.000
    H21     H    0.94698   0.73162   0.48344   1.000
    H22     H    0.28525   0.65648   0.51600   1.000
    H23     H    0.78524   0.65648   0.51600   1.000
    H24     H    0.26759   0.71754   0.27954   1.000
    H25     H    0.76757   0.71754   0.27954   1.000
    H26     H    0.00510   0.55276   0.39890   1.000
    H27     H    0.50508   0.55276   0.39890   1.000
    H28     H    0.05356   0.45791   0.38740   1.000
    H29     H    0.55355   0.45791   0.38740   1.000
    H30     H    0.08039   0.49154   0.25075   1.000
    H31     H    0.58038   0.49154   0.25075   1.000
    H32     H    0.02967   0.58614   0.26167   1.000
    H33     H    0.52966   0.58614   0.26167   1.000
    H34     H    0.46963   0.36654   0.26396   1.000
    H35     H    0.96962   0.36654   0.26396   1.000
    H36     H    0.35944   0.59754   0.23130   1.000
    H37     H    0.85942   0.59754   0.23130   1.000
    H38     H    0.45160   0.43133   0.07711   1.000
    H39     H    0.95158   0.43132   0.07711   1.000
    H40     H    0.28331   0.43381   0.05676   1.000
    H41     H    0.78330   0.43382   0.05676   1.000
    H42     H    0.34488   0.52327   0.03960   1.000
    H43     H    0.84486   0.52327   0.03965   1.000
    H44     H    0.13461   0.17270   0.07697   1.000
    H45     H    0.63461   0.17271   0.07690   1.000
    H46     H    0.12132   0.16213   0.17537   1.000
    H47     H    0.62131   0.16213   0.17537   1.000
    H48     H    0.14208   0.29191   0.96129   1.000
    H49     H    0.64207   0.29191   0.96129   1.000
    H50     H    0.38407   0.36192   0.84010   1.000
    H51     H    0.88405   0.36192   0.84013   1.000
    H52     H    0.02674   0.98551   0.31201   1.000
    H53     H    0.52673   0.98551   0.31201   1.000
    H54     H    0.04730   0.02540   0.14519   1.000
    H55     H    0.54729   0.02540   0.14519   1.000
    H56     H    0.07405   0.03669   0.04908   1.000
    H57     H    0.57403   0.03669   0.04908   1.000
    H58     H    0.30304   0.23118   0.01634   1.000
    H59     H    0.80303   0.23117   0.01634   1.000
    H60     H    0.46477   0.15573   0.98438   1.000
    H61     H    0.96475   0.15573   0.98438   1.000
    H62     H    0.48180   0.21771   0.22064   1.000
    H63     H    0.98178   0.21771   0.22064   1.000
    H64     H    0.24455   0.05297   0.10118   1.000
    H65     H    0.74454   0.05297   0.10118   1.000
    H66     H    0.19628   0.95792   0.11242   1.000
    H67     H    0.69627   0.95793   0.11242   1.000
    H68     H    0.16964   0.99097   0.24920   1.000
    H69     H    0.66963   0.99097   0.24928   1.000
    H70     H    0.22019   0.08573   0.23863   1.000
    H71     H    0.72018   0.08573   0.23863   1.000
    H72     H    0.28061   0.86625   0.23551   1.000
    H73     H    0.78060   0.86625   0.23550   1.000
    H74     H    0.39035   0.09743   0.26899   1.000
    H75     H    0.89034   0.09743   0.26899   1.000
    H76     H    0.20169   0.06860   0.57705   1.000
    H77     H    0.70167   0.06860   0.57705   1.000
    H78     H    0.03354   0.06611   0.55678   1.000
    H79     H    0.53353   0.06611   0.55677   1.000
    H80     H    0.09489   0.97661   0.53955   1.000
    H81     H    0.59488   0.97661   0.53955   1.000
    H82     H    0.38462   0.32722   0.57597   1.000
    H83     H    0.88460   0.32722   0.57597   1.000
    H84     H    0.37200   0.33744   0.67453   1.000
    H85     H    0.87198   0.33744   0.67453   1.000
    H86     H    0.39241   0.20790   0.46124   1.000
    H87     H    0.89239   0.20790   0.46124   1.000
    H88     H    0.13428   0.13804   0.34007   1.000
    H89     H    0.63428   0.13801   0.34006   1.000
    H90     H    0.27683   0.51451   0.81180   1.000
    H91     H    0.77682   0.51451   0.81184   1.000
    C92     C    0.96805   0.40163   0.02490   1.000
    C93     C    0.40914   0.40359   0.95676   1.000
    C94     C    0.90913   0.40360   0.95676   1.000
    C95     C    0.29491   0.47965   0.01396   1.000
    H96     H    0.29746   0.47418   0.64481   1.000
    H97     H    0.79745   0.47418   0.64481   1.000
    H98     H    0.32448   0.46328   0.54874   1.000
    H99     H    0.82447   0.46328   0.54874   1.000
    H100    H    0.05300   0.26834   0.51658   1.000
    H101    H    0.55299   0.26834   0.51658   1.000
    H102    H    0.21475   0.34347   0.48397   1.000
    H103    H    0.71473   0.34347   0.48397   1.000
    H104    H    0.23241   0.28242   0.72047   1.000
    H105    H    0.73240   0.28242   0.72047   1.000
    H106    H    0.49490   0.44719   0.60105   1.000
    H107    H    0.99489   0.44719   0.60105   1.000
    H108    H    0.44643   0.54205   0.61259   1.000
    H109    H    0.94642   0.54205   0.61259   1.000
    H110    H    0.41961   0.50842   0.74927   1.000
    H111    H    0.91960   0.50842   0.74927   1.000
    H112    H    0.47032   0.41381   0.73835   1.000
    H113    H    0.97031   0.41381   0.73835   1.000
    H114    H    0.03036   0.63342   0.73606   1.000
    H115    H    0.53035   0.63342   0.73606   1.000
    H116    H    0.14056   0.40242   0.76870   1.000
    H117    H    0.64055   0.40242   0.76870   1.000
    H118    H    0.04839   0.56862   0.92291   1.000
    H119    H    0.54838   0.56862   0.92291   1.000
    H120    H    0.21668   0.56614   0.94326   1.000
    H121    H    0.71667   0.56614   0.94326   1.000
    H122    H    0.15511   0.47668   0.96036   1.000
    H123    H    0.65510   0.47668   0.96036   1.000
    C124    C    0.34671   0.44683   0.60869   1.000
    C125    C    0.84670   0.44683   0.60869   1.000
    C126    C    0.29357   0.21966   0.32288   1.000
    C127    C    0.79356   0.21965   0.32288   1.000
    C128    C    0.11359   0.28433   0.55419   1.000
    H129    H    0.36538   0.82725   0.92305   1.000
    H130    H    0.86536   0.82725   0.92305   1.000
    H131    H    0.37867   0.83783   0.82464   1.000
    H132    H    0.87866   0.83783   0.82460   1.000
    H133    H    0.35791   0.70805   0.03872   1.000
    H134    H    0.85790   0.70805   0.03872   1.000
    H135    H    0.11592   0.63803   0.15988   1.000
    H136    H    0.61591   0.63804   0.15988   1.000
    H137    H    0.47325   0.01445   0.68801   1.000
    H138    H    0.97324   0.01445   0.68801   1.000
    H139    H    0.45269   0.97455   0.85483   1.000
    H140    H    0.95268   0.97455   0.85483   1.000
    H141    H    0.42595   0.96326   0.95094   1.000
    H142    H    0.92593   0.96326   0.95094   1.000
    H143    H    0.19695   0.76878   0.98360   1.000
    H144    H    0.69694   0.76878   0.98360   1.000
    H145    H    0.03523   0.84422   0.01564   1.000
    H146    H    0.53521   0.84422   0.01564   1.000
    H147    H    0.01820   0.78224   0.77938   1.000
    H148    H    0.51818   0.78224   0.77938   1.000
    H149    H    0.25544   0.94698   0.89884   1.000
    H150    H    0.75543   0.94698   0.89884   1.000
    H151    H    0.30371   0.04203   0.88760   1.000
    H152    H    0.80370   0.04203   0.88760   1.000
    H153    H    0.33035   0.00000   0.75073   1.000
    H154    H    0.83034   0.00000   0.75073   1.000
    H155    H    0.27980   0.91423   0.76139   1.000
    H156    H    0.77979   0.91423   0.76139   1.000
    H157    H    0.21938   0.13371   0.76451   1.000
    H158    H    0.71937   0.13371   0.76451   1.000
    H159    H    0.10964   0.90253   0.73103   1.000
    H160    H    0.60963   0.90253   0.73103   1.000
    C161    C    0.28180   0.90169   0.47517   1.000
    C162    C    0.78178   0.90169   0.47517   1.000
    C163    C    0.34072   0.90365   0.54333   1.000
    C164    C    0.84071   0.90366   0.54333   1.000
    C165    C    0.45502   0.97966   0.48608   1.000
    C166    C    0.95500   0.97967   0.48608   1.000
    C167    C    0.15661   0.64333   0.38290   1.000
    C168    C    0.65660   0.64333   0.38290   1.000
    C169    C    0.17337   0.82233   0.53941   1.000
    C170    C    0.67336   0.82232   0.53941   1.000
    C171    C    0.31741   0.86257   0.60843   1.000
    C172    C    0.81740   0.86257   0.60843   1.000
    C173    C    0.19825   0.86014   0.47328   1.000
    C174    C    0.69823   0.86014   0.47328   1.000
    C175    C    0.13595   0.85616   0.39924   1.000
    C176    C    0.63594   0.85617   0.39924   1.000
    C177    C    0.29382   0.47801   0.21236   1.000
    C178    C    0.79381   0.47801   0.21236   1.000
    C179    C    0.23337   0.82284   0.60710   1.000
    C180    C    0.73335   0.82284   0.60710   1.000
    C181    C    0.15328   0.55312   0.39132   1.000
    C182    C    0.65327   0.55312   0.39132   1.000
    C183    C    0.20641   0.78031   0.67713   1.000
    C184    C    0.70640   0.78031   0.67713   1.000
    C185    C    0.38641   0.71563   0.44582   1.000
    C186    C    0.88640   0.71563   0.44582   1.000
    C187    C    0.30717   0.67833   0.46245   1.000
    C188    C    0.80716   0.67833   0.46245   1.000
    C189    C    0.29551   0.71079   0.33898   1.000
    C190    C    0.79550   0.71079   0.33898   1.000
    C191    C    0.05631   0.52010   0.36881   1.000
    C192    C    0.55630   0.52010   0.36881   1.000
    C193    C    0.03068   0.52459   0.28170   1.000
    C194    C    0.53067   0.52459   0.28170   1.000
    C195    C    0.41982   0.41317   0.25063   1.000
    C196    C    0.91981   0.41317   0.25063   1.000
    C197    C    0.36031   0.53341   0.23330   1.000
    C198    C    0.86030   0.53341   0.23330   1.000
    C199    C    0.46806   0.40162   0.02490   1.000
    C200    C    0.79490   0.47965   0.01396   1.000
    C201    C    0.09307   0.14312   0.11776   1.000
    C202    C    0.59306   0.14312   0.11776   1.000
    C203    C    0.07635   0.32220   0.96065   1.000
    C204    C    0.57634   0.32220   0.96066   1.000
    C205    C    0.43236   0.36251   0.89165   1.000
    C206    C    0.93236   0.36251   0.89165   1.000
    C207    C    0.05156   0.36005   0.02678   1.000
    C208    C    0.55155   0.36006   0.02678   1.000
    C209    C    0.11393   0.35613   0.10078   1.000
    C210    C    0.61392   0.35614   0.10070   1.000
    C211    C    0.45612   0.97797   0.28771   1.000
    C212    C    0.95611   0.97797   0.28771   1.000
    C213    C    0.01635   0.32274   0.89297   1.000
    C214    C    0.51634   0.32275   0.89297   1.000
    C215    C    0.09642   0.05296   0.10906   1.000
    C216    C    0.59641   0.05296   0.10906   1.000
    C217    C    0.04324   0.28029   0.82290   1.000
    C218    C    0.54323   0.28029   0.82290   1.000
    C219    C    0.36350   0.21530   0.05414   1.000
    C220    C    0.86349   0.21530   0.05414   1.000
    C221    C    0.44274   0.17787   0.03781   1.000
    C222    C    0.94273   0.17786   0.03781   1.000
    C223    C    0.45410   0.21078   0.16110   1.000
    C224    C    0.95408   0.21078   0.16116   1.000
    C225    C    0.19347   0.02005   0.13129   1.000
    C226    C    0.69346   0.02005   0.13129   1.000
    C227    C    0.21924   0.02425   0.21834   1.000
    C228    C    0.71923   0.02425   0.21834   1.000
    C229    C    0.33029   0.91297   0.24908   1.000
    C230    C    0.83028   0.91297   0.24900   1.000
    C231    C    0.38957   0.03331   0.26684   1.000
    C232    C    0.88955   0.03331   0.26684   1.000
    C233    C    0.21821   0.09827   0.52484   1.000
    C234    C    0.71819   0.09827   0.52484   1.000
    C235    C    0.15928   0.09630   0.45668   1.000
    C236    C    0.65927   0.09630   0.45668   1.000
    C237    C    0.04498   0.02029   0.51393   1.000
    C238    C    0.54497   0.02029   0.51393   1.000
    C239    C    0.34339   0.35662   0.61708   1.000
    C240    C    0.84337   0.35662   0.61708   1.000
    C241    C    0.32663   0.17763   0.46059   1.000
    C242    C    0.82661   0.17764   0.46060   1.000
    C243    C    0.18258   0.13739   0.39158   1.000
    C244    C    0.68257   0.13739   0.39158   1.000
    C245    C    0.30175   0.13982   0.52673   1.000
    C246    C    0.80174   0.13982   0.52673   1.000
    C247    C    0.36404   0.14380   0.60070   1.000
    C248    C    0.86403   0.14380   0.60070   1.000
    C249    C    0.20617   0.52195   0.78766   1.000
    C250    C    0.70616   0.52195   0.78766   1.000
    C251    C    0.26663   0.17713   0.39291   1.000
    C252    C    0.76662   0.17712   0.39291   1.000
    C253    C    0.61358   0.28433   0.55419   1.000
    C254    C    0.19283   0.32162   0.53757   1.000
    C255    C    0.69281   0.32162   0.53757   1.000
    C256    C    0.20449   0.28917   0.66103   1.000
    C257    C    0.70447   0.28917   0.66103   1.000
    C258    C    0.44368   0.47985   0.63121   1.000
    C259    C    0.94367   0.47985   0.63121   1.000
    C260    C    0.46932   0.47537   0.71827   1.000
    C261    C    0.96931   0.47537   0.71827   1.000
    C262    C    0.08017   0.58679   0.74938   1.000
    C263    C    0.58016   0.58679   0.74938   1.000
    C264    C    0.13968   0.46655   0.76672   1.000
    C265    C    0.63967   0.46655   0.76672   1.000
    C266    C    0.03193   0.59833   0.97511   1.000
    C267    C    0.53192   0.59833   0.97511   1.000
    C268    C    0.09085   0.59636   0.04326   1.000
    C269    C    0.59084   0.59636   0.04320   1.000
    C270    C    0.20508   0.52030   0.98606   1.000
    C271    C    0.70507   0.52031   0.98606   1.000
    C272    C    0.40692   0.85683   0.88226   1.000
    C273    C    0.90691   0.85683   0.88226   1.000
    C274    C    0.42364   0.67776   0.03936   1.000
    C275    C    0.92363   0.67776   0.03936   1.000
    C276    C    0.06762   0.63745   0.10837   1.000
    C277    C    0.56761   0.63745   0.10830   1.000
    C278    C    0.44843   0.63990   0.97324   1.000
    C279    C    0.94841   0.63990   0.97324   1.000
    C280    C    0.38606   0.64382   0.89923   1.000
    C281    C    0.88605   0.64382   0.89923   1.000
    C282    C    0.04387   0.02199   0.71231   1.000
    C283    C    0.54386   0.02199   0.71231   1.000
    C284    C    0.48364   0.67722   0.10704   1.000
    C285    C    0.98363   0.67721   0.10704   1.000
    C286    C    0.40357   0.94700   0.89090   1.000
    C287    C    0.90356   0.94700   0.89090   1.000
    C288    C    0.45675   0.71968   0.17711   1.000
    C289    C    0.95674   0.71968   0.17711   1.000
    C290    C    0.13649   0.78465   0.94588   1.000
    C291    C    0.63648   0.78465   0.94588   1.000
    C292    C    0.05725   0.82209   0.96220   1.000
    C293    C    0.55724   0.82209   0.96220   1.000
    C294    C    0.04589   0.78917   0.83886   1.000
    C295    C    0.54588   0.78917   0.83886   1.000
    C296    C    0.30652   0.97990   0.86873   1.000
    C297    C    0.80651   0.97990   0.86873   1.000
    C298    C    0.28075   0.97571   0.78160   1.000
    C299    C    0.78074   0.97571   0.78160   1.000
    C300    C    0.16970   0.08699   0.75094   1.000
    C301    C    0.66969   0.08699   0.75094   1.000
    C302    C    0.11043   0.96666   0.73318   1.000
    C303    C    0.61041   0.96666   0.73318   1.000
    N304    N    0.25015   0.67571   0.39423   1.000
    N305    N    0.75013   0.67571   0.39423   1.000
    N306    N    0.37852   0.73540   0.36840   1.000
    N307    N    0.87851   0.73540   0.36840   1.000
    N308    N    0.33182   0.40306   0.22355   1.000
    N309    N    0.83181   0.40306   0.22355   1.000
    N310    N    0.43964   0.49145   0.25747   1.000
    N311    N    0.93963   0.49145   0.25747   1.000
    N312    N    0.49957   0.17545   0.10615   1.000
    N313    N    0.99955   0.17545   0.10615   1.000
    N314    N    0.37121   0.23536   0.13149   1.000
    N315    N    0.87120   0.23536   0.13149   1.000
    N316    N    0.41826   0.90297   0.27626   1.000
    N317    N    0.91825   0.90297   0.27626   1.000
    N318    N    0.31034   0.99122   0.24244   1.000
    N319    N    0.81033   0.99122   0.24244   1.000
    N320    N    0.24985   0.32424   0.60579   1.000
    N321    N    0.74984   0.32424   0.60579   1.000
    N322    N    0.12148   0.26456   0.63161   1.000
    N323    N    0.62146   0.26456   0.63161   1.000
    N324    N    0.16818   0.59690   0.77647   1.000
    N325    N    0.66817   0.59690   0.77647   1.000
    N326    N    0.06035   0.50851   0.74254   1.000
    N327    N    0.56034   0.50851   0.74254   1.000
    N328    N    0.00043   0.82450   0.89387   1.000
    N329    N    0.50041   0.82450   0.89387   1.000
    N330    N    0.12878   0.76460   0.86850   1.000
    N331    N    0.62877   0.76460   0.86850   1.000
    N332    N    0.08173   0.09699   0.72375   1.000
    N333    N    0.58172   0.09699   0.72375   1.000
    N334    N    0.18965   0.00874   0.75758   1.000
    N335    N    0.68964   0.00874   0.75758   1.000
    O336    O    0.06260   0.81273   0.40343   1.000
    O337    O    0.56259   0.81273   0.40340   1.000
    O338    O    0.42259   0.94368   0.55283   1.000
    O339    O    0.92257   0.94369   0.55283   1.000
    O340    O    0.12533   0.75697   0.68001   1.000
    O341    O    0.62532   0.75696   0.68001   1.000
    O342    O    0.15579   0.89174   0.34039   1.000
    O343    O    0.65578   0.89174   0.34039   1.000
    O344    O    0.27169   0.77056   0.73304   1.000
    O345    O    0.77168   0.77056   0.73304   1.000
    O346    O    0.18725   0.31272   0.09657   1.000
    O347    O    0.68724   0.31271   0.09657   1.000
    O348    O    0.32735   0.44367   0.94724   1.000
    O349    O    0.82733   0.44366   0.94724   1.000
    O350    O    0.12432   0.25700   0.81997   1.000
    O351    O    0.62431   0.25700   0.81997   1.000
    O352    O    0.09419   0.39176   0.15963   1.000
    O353    O    0.59417   0.39176   0.15963   1.000
    O354    O    0.47793   0.27054   0.76698   1.000
    O355    O    0.97792   0.27054   0.76698   1.000
    O356    O    0.43740   0.18724   0.59658   1.000
    O357    O    0.93738   0.18724   0.59658   1.000
    O358    O    0.07740   0.05629   0.44718   1.000
    O359    O    0.57740   0.05627   0.44718   1.000
    O360    O    0.37466   0.24300   0.30000   1.000
    O361    O    0.87464   0.24301   0.32000   1.000
    O362    O    0.34420   0.10823   0.65962   1.000
    O363    O    0.84419   0.10823   0.65962   1.000
    O364    O    0.22829   0.22941   0.26697   1.000
    O365    O    0.72828   0.22941   0.26697   1.000
    O366    O    0.31275   0.68725   0.90344   1.000
    O367    O    0.81274   0.68725   0.90344   1.000
    O368    O    0.17264   0.55628   0.05278   1.000
    O369    O    0.67263   0.55629   0.05278   1.000
    O370    O    0.37567   0.74297   0.18004   1.000
    O371    O    0.87566   0.74297   0.18004   1.000
    O372    O    0.40581   0.60821   0.84038   1.000
    O373    O    0.90580   0.60821   0.84038   1.000
    O374    O    0.02206   0.72943   0.23303   1.000
    O375    O    0.52205   0.72943   0.23303   1.000
loop_
    _geom_bond_atom_site_label_1
    _geom_bond_atom_site_label_2
    _geom_bond_distance
    _geom_bond_site_symmetry_2
    _ccdc_geom_bond_type
    C200   H43       1.10051      .   S
    C200   H41       1.09986      .   S
    C200   O349      1.43411  1_554   S
    C200   C271      1.51801  1_554   S
    C95    H42       1.10021      .   S
    C95    H40       1.09987      .   S
    C95    O348      1.43410  1_554   S
    C95    C270      1.51801  1_554   S
    H146   C293      1.08234  1_554   S
    H145   C292      1.08234  1_554   S
    H59    C220      1.08326      .   S
    H58    C219      1.08326      .   S
    C92    C207      1.40425  1_655   S
    C92    H39       1.08731      .   S
    C92    C94       1.39929  1_554   S
    C199   C208      1.40395      .   S
    C199   H38       1.08737      .   S
    C199   C93       1.39929  1_554   S
    C208   C210      1.50707      .   S
    C208   C204      1.39741  1_554   S
    C207   C209      1.50819      .   S
    C207   C203      1.39748  1_554   S
    C222   C220      1.37195      .   S
    C222   N313      1.38625      .   S
    C222   H61       1.08220  1_554   S
    C221   C219      1.37195      .   S
    C221   N312      1.38624      .   S
    C221   H60       1.08219  1_554   S
    H133   C274      1.08624      .   S
    H134   C275      1.08623      .   S
    C274   C284      1.40107      .   S
    C274   C278      1.39740  1_554   S
    C275   C285      1.40105      .   S
    C275   C279      1.39740  1_554   S
    C269   O369      1.36827      .   S
    C269   C277      1.40085      .   S
    C269   C267      1.39860  1_554   S
    C268   O368      1.36823      .   S
    C268   C276      1.40099      .   S
    C268   C266      1.39943  1_554   S
    H57    C216      1.10106      .   S
    H56    C215      1.10106      .   S
    O368   C270      1.43411  1_554   S
    O369   C271      1.43411  1_554   S
    C220   N315      1.38619      .   S
    C219   N314      1.38618      .   S
    H45    C202      1.09962      .   S
    H44    C201      1.09876      .   S
    O346   C209      1.30515      .   S
    O347   C210      1.30496      .   S
    C210   O353      1.24915      .   S
    C209   O352      1.24803      .   S
    H64    C225      1.10279      .   S
    H65    C226      1.10280      .   S
    N313   C201      1.46584  1_655   S
    N313   C224      1.35718      .   S
    N312   C202      1.46553      .   S
    N312   C223      1.35639      .   S
    C285   C276      1.39606  1_655   S
    C285   C289      1.50239      .   S
    C284   C277      1.39584      .   S
    C284   C288      1.50239      .   S
    C277   H136      1.08865      .   S
    C276   H135      1.08770      .   S
    C216   C202      1.53055      .   S
    C216   C226      1.53602      .   S
    C216   H55       1.10241      .   S
    C215   C201      1.53055      .   S
    C215   C225      1.53604      .   S
    C215   H54       1.10241      .   S
    H67    C226      1.10101  1_565   S
    H66    C225      1.10101  1_565   S
    C202   H47       1.09733      .   S
    C201   H46       1.09733      .   S
    C225   C227      1.53157      .   S
    C226   C228      1.53157      .   S
    N314   C223      1.33495      .   S
    N315   C224      1.33526      .   S
    C223   H62       1.08459      .   S
    C224   H63       1.08363      .   S
    C289   O371      1.25279      .   S
    C289   O374      1.30726  1_655   S
    C288   O370      1.25279      .   S
    C288   O375      1.30701      .   S
    H15    C178      1.08321      .   S
    H14    C177      1.08322      .   S
    C177   N308      1.38756      .   S
    C177   C197      1.37118      .   S
    C178   N309      1.38755      .   S
    C178   C198      1.37118      .   S
    C227   H70       1.09606      .   S
    C227   N318      1.46561  1_545   S
    C227   H68       1.09763  1_545   S
    C228   H71       1.09607      .   S
    C228   N319      1.46561  1_545   S
    C228   H69       1.09840  1_545   S
    N308   C195      1.33583      .   S
    N309   C196      1.33583      .   S
    H36    C197      1.08295      .   S
    H37    C198      1.08293      .   S
    C197   N310      1.38793      .   S
    C198   N311      1.38794      .   S
    H73    C230      1.08138      .   S
    H72    C229      1.08156      .   S
    N318   C229      1.35500      .   S
    N318   C231      1.38802  1_565   S
    N319   C230      1.35492      .   S
    N319   C232      1.38801  1_565   S
    C230   N317      1.33617      .   S
    C229   N316      1.33582      .   S
    C195   N310      1.35500      .   S
    C195   H34       1.08155      .   S
    C196   N311      1.35499      .   S
    C196   H35       1.08156      .   S
    H30    C193      1.09800      .   S
    H31    C194      1.09801      .   S
    N310   C194      1.46526      .   S
    N311   C193      1.46557  1_655   S
    H32    C193      1.09581      .   S
    H33    C194      1.09581      .   S
    C232   H75       1.08290      .   S
    C232   C212      1.37145  1_545   S
    C231   H74       1.08292      .   S
    C231   C211      1.37144  1_545   S
    O365   C127      1.30693      .   S
    O364   C126      1.30682      .   S
    N317   C212      1.38749      .   S
    N316   C211      1.38749      .   S
    H24    C189      1.08364      .   S
    H25    C190      1.08364      .   S
    C194   C192      1.53253      .   S
    C193   C191      1.53254      .   S
    C211   H53       1.08320      .   S
    C212   H52       1.08351  1_655   S
    O360   C126      1.34391      .   S
    O361   C127      1.25267      .   S
    C126   C251      1.50254      .   S
    C127   C252      1.50253      .   S
    H8     C167      1.09682      .   S
    H9     C168      1.09682      .   S
    C190   N307      1.33535      .   S
    C190   N305      1.35735      .   S
    C189   N306      1.33534      .   S
    C189   N304      1.35736      .   S
    H89    C244      1.08781      .   S
    H88    C243      1.08778      .   S
    O343   C176      1.24795      .   S
    O342   C175      1.24797      .   S
    H17    C182      1.10230      .   S
    H16    C181      1.10229      .   S
    N307   C186      1.38621      .   S
    N306   C185      1.38621      .   S
    C192   H29       1.10055      .   S
    C192   C182      1.53602      .   S
    C192   H27       1.10222      .   S
    C191   H28       1.10057      .   S
    C191   C181      1.53601      .   S
    C191   H26       1.10222      .   S
    C167   C181      1.53073      .   S
    C167   N304      1.46562      .   S
    C167   H6        1.09924      .   S
    C168   C182      1.53073      .   S
    C168   N305      1.46563      .   S
    C168   H7        1.09924      .   S
    C181   H18       1.10119      .   S
    C182   H19       1.10119      .   S
    C244   C252      1.39583      .   S
    C244   C236      1.40103      .   S
    C243   C251      1.39583      .   S
    C243   C235      1.40107      .   S
    C251   C241      1.40110      .   S
    C252   C242      1.40111      .   S
    N305   C188      1.38615      .   S
    N304   C187      1.38616      .   S
    C176   O337      1.30502      .   S
    C176   C174      1.50818      .   S
    C175   O336      1.30508      .   S
    C175   C173      1.50818      .   S
    H0     C161      1.08726      .   S
    H1     C162      1.08728      .   S
    H3     C166      1.09980      .   S
    H2     C165      1.09981      .   S
    C185   C187      1.37187      .   S
    C185   H20       1.08323      .   S
    C186   C188      1.37187      .   S
    C186   H21       1.08324      .   S
    O358   C235      1.36830      .   S
    O358   C237      1.43440      .   S
    O359   C236      1.36830      .   S
    O359   C238      1.43435      .   S
    C236   C234      1.39954      .   S
    C235   C233      1.39957      .   S
    H5     C166      1.10073  1_545   S
    H4     C165      1.10073  1_545   S
    C241   H86       1.08623      .   S
    C241   C245      1.39763      .   S
    C242   H87       1.08625      .   S
    C242   C246      1.39754      .   S
    C187   H22       1.08171      .   S
    C188   H23       1.08171      .   S
    C174   C162      1.40388      .   S
    C174   C170      1.39754      .   S
    C173   C161      1.40387      .   S
    C173   C169      1.39751      .   S
    C162   C164      1.39954      .   S
    C161   C163      1.39955      .   S
    H102   C254      1.08249      .   S
    H103   C255      1.08250      .   S
    C165   C238      1.51839  1_565   S
    C165   O338      1.43437      .   S
    C166   C237      1.51867  1_665   S
    C166   O339      1.43437      .   S
    C237   H80       1.10077  1_545   S
    C237   H78       1.09988      .   S
    C238   H81       1.10071  1_545   S
    C238   H79       1.09984      .   S
    H101   C253      1.08315      .   S
    H100   C128      1.08315      .   S
    C234   C246      1.40388      .   S
    C234   H77       1.08728      .   S
    C233   C245      1.40386      .   S
    C233   H76       1.08726      .   S
    C245   C247      1.50720      .   S
    C246   C248      1.50720      .   S
    C255   C253      1.37182      .   S
    C255   N321      1.38615      .   S
    C254   C128      1.37182      .   S
    C254   N320      1.38614      .   S
    H11    C170      1.08624      .   S
    H10    C169      1.08624      .   S
    C169   C179      1.40118      .   S
    C170   C180      1.40114      .   S
    C164   O339      1.36830      .   S
    C164   C172      1.40105      .   S
    C163   O338      1.36830      .   S
    C163   C171      1.40104      .   S
    H98    C124      1.10103      .   S
    H99    C125      1.10103      .   S
    C253   N323      1.38621      .   S
    C128   N322      1.38620      .   S
    H83    C240      1.09874      .   S
    H82    C239      1.09874      .   S
    O356   C247      1.30493      .   S
    O357   C248      1.30493      .   S
    C247   O362      1.24899      .   S
    C248   O363      1.24897      .   S
    H107   C259      1.10289      .   S
    H106   C258      1.10288      .   S
    N321   C240      1.46560      .   S
    N321   C257      1.35722      .   S
    N320   C239      1.46561      .   S
    N320   C256      1.35722      .   S
    C179   C171      1.39583      .   S
    C179   C183      1.50253      .   S
    C180   C172      1.39583      .   S
    C180   C184      1.50252      .   S
    C171   H12       1.08785      .   S
    C172   H13       1.08783      .   S
    C124   C239      1.53066      .   S
    C124   C258      1.53606      .   S
    C124   H96       1.10240      .   S
    C125   C240      1.53067      .   S
    C125   C259      1.53604      .   S
    C125   H97       1.10239      .   S
    H109   C259      1.10072      .   S
    H108   C258      1.10071      .   S
    C239   H84       1.09743      .   S
    C240   H85       1.09743      .   S
    C259   C261      1.53169      .   S
    C258   C260      1.53169      .   S
    N323   C257      1.33534      .   S
    N322   C256      1.33532      .   S
    C256   H104      1.08363      .   S
    C257   H105      1.08363      .   S
    C184   O341      1.25266      .   S
    C184   O345      1.30685      .   S
    C183   O340      1.25265      .   S
    C183   O344      1.30683      .   S
    H137   C283      1.08319      .   S
    H138   C282      1.08352  1_655   S
    C282   N332      1.38747      .   S
    C282   C302      1.37144  1_545   S
    C283   N333      1.38747      .   S
    C283   C303      1.37145  1_545   S
    C260   H112      1.09608      .   S
    C260   N327      1.46542      .   S
    C260   H110      1.09850      .   S
    C261   H113      1.09608      .   S
    C261   N326      1.46572  1_655   S
    C261   H111      1.09848      .   S
    N332   C300      1.33587      .   S
    N333   C301      1.33587      .   S
    H159   C302      1.08290      .   S
    H160   C303      1.08290      .   S
    C303   N335      1.38802  1_565   S
    C302   N334      1.38803  1_565   S
    H115   C263      1.08154      .   S
    H114   C262      1.08154      .   S
    N327   C263      1.35500      .   S
    N327   C265      1.38798      .   S
    N326   C262      1.35500      .   S
    N326   C264      1.38798      .   S
    C263   N325      1.33588      .   S
    C262   N324      1.33588      .   S
    H153   C298      1.02848  1_545   S
    H154   C299      1.02848  1_545   S
    C300   N334      1.35502      .   S
    C300   H157      1.08155      .   S
    C301   N335      1.35500      .   S
    C301   H158      1.08155      .   S
    N334   C298      1.46532  1_545   S
    N335   C299      1.46533  1_545   S
    H156   C299      1.09562      .   S
    H155   C298      1.09562      .   S
    C265   H117      1.08293      .   S
    C265   C250      1.37119      .   S
    C264   H116      1.08293      .   S
    C264   C249      1.37118      .   S
    O355   C217      1.30723  1_655   S
    O354   C218      1.30702      .   S
    N325   C250      1.38757      .   S
    N324   C249      1.38756      .   S
    H147   C294      1.08362      .   S
    H148   C295      1.08362      .   S
    C298   C296      1.53292      .   S
    C299   C297      1.53292      .   S
    C250   H91       1.08316      .   S
    C249   H90       1.08295      .   S
    O350   C217      1.25278      .   S
    O351   C218      1.25279      .   S
    C218   C214      1.50234      .   S
    C217   C213      1.50234      .   S
    H132   C273      1.09809      .   S
    H131   C272      1.09748      .   S
    C294   N330      1.33510      .   S
    C294   N328      1.35716      .   S
    C295   N331      1.33512      .   S
    C295   N329      1.35716      .   S
    H50    C205      1.08822      .   S
    H51    C206      1.08784      .   S
    O372   C280      1.24796      .   S
    O373   C281      1.24797      .   S
    H140   C287      1.10174      .   S
    H139   C286      1.10174      .   S
    N331   C291      1.38668      .   S
    N330   C290      1.38668      .   S
    C297   H152      1.10100  1_565   S
    C297   C287      1.53587      .   S
    C297   H150      1.10280      .   S
    C296   H151      1.10099  1_565   S
    C296   C286      1.53586      .   S
    C296   H149      1.10281      .   S
    C273   C287      1.53044      .   S
    C273   N328      1.46586  1_655   S
    C273   H130      1.09876      .   S
    C272   C286      1.53042      .   S
    C272   N329      1.46552      .   S
    C272   H129      1.09877      .   S
    C287   H142      1.10202      .   S
    C286   H141      1.10203      .   S
    C206   C213      1.39606  1_655   S
    C206   C94       1.40097      .   S
    C205   C214      1.39576      .   S
    C205   C93       1.40097      .   S
    C214   C204      1.40119      .   S
    C213   C203      1.40110      .   S
    N328   C292      1.38611      .   S
    N329   C293      1.38611      .   S
    C281   O367      1.30514      .   S
    C281   C279      1.50830      .   S
    C280   O366      1.30514      .   S
    C280   C278      1.50830      .   S
    H118   C266      1.08722      .   S
    H119   C267      1.08722      .   S
    H120   C270      1.09988      .   S
    H121   C271      1.09987      .   S
    C290   C292      1.37189      .   S
    C290   H143      1.08252      .   S
    C291   C293      1.37189      .   S
    C291   H144      1.08252      .   S
    O348   C93       1.36823      .   S
    O349   C94       1.36823      .   S
    H122   C270      1.10055      .   S
    H123   C271      1.10056      .   S
    C203   H48       1.08624      .   S
    C204   H49       1.08625      .   S
    C279   C266      1.40426  1_655   S
    C278   C267      1.40396      .   S
