# CIF file generated by openbabel 2.4.90, see http://openbabel.sf.net
data_I
_chemical_name_common ''
_cell_length_a 14.594
_cell_length_b 16.877
_cell_length_c 17.459
_cell_angle_alpha 90.002
_cell_angle_beta 95.55
_cell_angle_gamma 90.028
_space_group_name_H-M_alt 'P 1'
_space_group_name_Hall 'P 1'
loop_
    _symmetry_equiv_pos_as_xyz
    x,y,z
loop_
    _atom_site_label
    _atom_site_type_symbol
    _atom_site_fract_x
    _atom_site_fract_y
    _atom_site_fract_z
    _atom_site_occupancy
    Zn0     Zn   0.97276   0.79835   0.31263   1.000
    Zn1     Zn   0.27719   0.29840   0.18727   1.000
    Zn2     Zn   0.77717   0.29840   0.18727   1.000
    Zn3     Zn   0.02722   0.20162   0.68730   1.000
    Zn4     Zn   0.52721   0.20162   0.68730   1.000
    Zn5     Zn   0.22281   0.70157   0.81274   1.000
    Zn6     Zn   0.72279   0.70156   0.81274   1.000
    Zn7     Zn   0.47277   0.79835   0.31263   1.000
