# CIF file generated by openbabel 2.4.90, see http://openbabel.sf.net
data_I
_chemical_name_common ''
_cell_length_a 14.594
_cell_length_b 16.877
_cell_length_c 17.459
_cell_angle_alpha 90.002
_cell_angle_beta 95.55
_cell_angle_gamma 90.028
_space_group_name_H-M_alt 'P 1'
_space_group_name_Hall 'P 1'
loop_
    _symmetry_equiv_pos_as_xyz
    x,y,z
loop_
    _atom_site_label
    _atom_site_type_symbol
    _atom_site_fract_x
    _atom_site_fract_y
    _atom_site_fract_z
    _atom_site_occupancy
    Zr0     Zr   0.47277   0.79835   0.31263   1.000
    Zr1     Zr   0.97276   0.79835   0.31263   1.000
    Zr2     Zr   0.27719   0.29840   0.18727   1.000
    Zr3     Zr   0.77717   0.29840   0.18727   1.000
    Zr4     Zr   0.02722   0.20162   0.68730   1.000
    Zr5     Zr   0.52721   0.20162   0.68730   1.000
    Zr6     Zr   0.22281   0.70157   0.81274   1.000
    Zr7     Zr   0.72279   0.70156   0.81274   1.000
    N8      N    0.24999   0.49998   0.00000   1.000
    O9      O    0.12370   0.63193   0.13642   1.000
    O10     O    0.49110   0.40277   0.07096   1.000
    O11     O    0.00888   0.59719   0.92905   1.000
    O12     O    0.37628   0.36803   0.86357   1.000
    N13     N    0.59650   0.57562   0.33675   1.000
    O14     O    0.76107   0.67125   0.33863   1.000
    O15     O    0.45050   0.46318   0.27108   1.000
    N16     N    0.34666   0.92421   0.83660   1.000
    O17     O    0.20057   0.03676   0.77106   1.000
    O18     O    0.51122   0.82865   0.83861   1.000
    N19     N    0.74999   0.49998   0.00000   1.000
    O20     O    0.62370   0.63193   0.13642   1.000
    O21     O    0.99110   0.40277   0.07096   1.000
    O22     O    0.50888   0.59719   0.92905   1.000
    O23     O    0.87628   0.36803   0.86357   1.000
    N24     N    0.90348   0.42434   0.66325   1.000
    O25     O    0.04948   0.53679   0.72893   1.000
    O26     O    0.73891   0.32871   0.66135   1.000
    N27     N    0.65332   0.07543   0.16340   1.000
    O28     O    0.79941   0.96304   0.22892   1.000
    O29     O    0.48876   0.17115   0.16139   1.000
    N30     N    0.09651   0.57562   0.33675   1.000
    O31     O    0.95050   0.46318   0.27108   1.000
    O32     O    0.26108   0.67125   0.33863   1.000
    N33     N    0.49999   0.99998   0.50000   1.000
    O34     O    0.25883   0.90276   0.42902   1.000
    O35     O    0.74115   0.09721   0.57097   1.000
    O36     O    0.37362   0.86802   0.63645   1.000
    O37     O    0.62636   0.13194   0.36356   1.000
    N38     N    0.15332   0.07542   0.16341   1.000
    O39     O    0.98875   0.17115   0.16139   1.000
    O40     O    0.29942   0.96304   0.22893   1.000
    N41     N    0.99999   0.99998   0.49948   1.000
    O42     O    0.75883   0.90276   0.42875   1.000
    O43     O    0.87362   0.86802   0.63618   1.000
    O44     O    0.24115   0.09721   0.57071   1.000
    O45     O    0.12637   0.13194   0.36330   1.000
    N46     N    0.84666   0.92421   0.83660   1.000
    O47     O    0.01123   0.82865   0.83861   1.000
    O48     O    0.70056   0.03676   0.77106   1.000
    N49     N    0.40348   0.42434   0.66325   1.000
    O50     O    0.54948   0.53679   0.72893   1.000
    O51     O    0.23892   0.32871   0.66135   1.000
loop_
    _geom_bond_atom_site_label_1
    _geom_bond_atom_site_label_2
    _geom_bond_distance
    _geom_bond_site_symmetry_2
    _ccdc_geom_bond_type
    N8     O9        3.85764      .   S
    Zr1    O9        4.84995  1_655   S
    N8     O10       3.97121      .   S
    Zr3    O10       4.79835      .   S
    N8     O11       3.97128  1_554   S
    Zr7    O11       4.79844  1_655   S
    N8     O12       3.85781  1_554   S
    Zr5    O12       4.85051      .   S
    N13    O14       2.89046      .   S
    Zr1    O14       3.82321      .   S
    N13    O15       2.99653      .   S
    Zr2    O15       3.94322      .   S
    N16    O17       2.99918  1_565   S
    Zr4    O17       3.94608      .   S
    N16    O18       2.89096      .   S
    Zr7    O18       3.82282      .   S
    N19    O20       3.85763      .   S
    Zr0    O20       4.84984      .   S
    N19    O21       3.97130      .   S
    Zr2    O21       4.79844  1_455   S
    N19    O22       3.97120  1_554   S
    Zr6    O22       4.79836      .   S
    N19    O23       3.85781  1_554   S
    Zr4    O23       4.85063  1_455   S
    N24    O25       2.99667  1_655   S
    Zr6    O25       3.94336      .   S
    N24    O26       2.89047      .   S
    Zr5    O26       3.82301      .   S
    N27    O28       2.99734  1_545   S
    Zr1    O28       3.94380      .   S
    N27    O29       2.89249      .   S
    Zr2    O29       3.82443      .   S
    N30    O31       2.99662  1_455   S
    Zr3    O31       3.94330      .   S
    N30    O32       2.89050      .   S
    Zr0    O32       3.82325      .   S
    N33    O34       3.97055      .   S
    Zr1    O34       4.79753  1_655   S
    N33    O35       3.97049  1_565   S
    Zr4    O35       4.79720  1_455   S
    N33    O36       3.85771      .   S
    Zr6    O36       4.84921      .   S
    N33    O37       3.85771  1_565   S
    Zr3    O37       4.84923      .   S
    N38    O39       2.89259  1_455   S
    Zr3    O39       3.82453      .   S
    N38    O40       2.99737  1_545   S
    Zr0    O40       3.94382      .   S
    N41    O42       3.96954      .   S
    Zr0    O42       4.79579      .   S
    N41    O43       3.86082      .   S
    Zr7    O43       4.85239      .   S
    N41    O44       3.97153  1_665   S
    Zr5    O44       4.79860      .   S
    N41    O45       3.85470  1_665   S
    Zr2    O45       4.84616      .   S
    N46    O47       2.89105  1_655   S
    Zr6    O47       3.82291      .   S
    N46    O48       2.99921  1_565   S
    Zr5    O48       3.94610      .   S
    N49    O50       2.99658      .   S
    Zr7    O50       3.94327      .   S
    N49    O51       2.89042      .   S
    Zr4    O51       3.82297      .   S
