# CIF file generated by openbabel 2.4.90, see http://openbabel.sf.net
data_I
_chemical_name_common ''
_cell_length_a 13.063
_cell_length_b 13.036
_cell_length_c 17.836
_cell_angle_alpha 98.267
_cell_angle_beta 98.318
_cell_angle_gamma 118.299
_space_group_name_H-M_alt 'P 1'
_space_group_name_Hall 'P 1'
loop_
    _symmetry_equiv_pos_as_xyz
    x,y,z
loop_
    _atom_site_label
    _atom_site_type_symbol
    _atom_site_fract_x
    _atom_site_fract_y
    _atom_site_fract_z
    _atom_site_occupancy
    Zn0     Zn   0.66690   0.80589   0.54095   1.000
    Zn1     Zn   0.80648   0.66697   0.04114   1.000
    Zn2     Zn   0.33309   0.19413   0.45908   1.000
    Zn3     Zn   0.73911   0.26051   0.24994   1.000
    Zn4     Zn   0.26088   0.73951   0.75009   1.000
    Zn5     Zn   0.19351   0.33305   0.95888   1.000
    C6      C    0.19308   0.45081   0.11150   1.000
    C7      C    0.28050   0.38655   0.82528   1.000
    O8      O    0.46091   0.23440   0.54937   1.000
    O9      O    0.28525   0.19752   0.28794   1.000
    O10     O    0.43414   0.29708   0.39871   1.000
    C11     C    0.54966   0.80621   0.38799   1.000
    C12     C    0.61314   0.71875   0.67450   1.000
    C13     C    0.80690   0.54922   0.88845   1.000
    C14     C    0.71949   0.61346   0.17470   1.000
    C15     C    0.45034   0.19380   0.61203   1.000
    C16     C    0.38685   0.28127   0.32546   1.000
    O17     O    0.09445   0.36957   0.11681   1.000
    O18     O    0.23356   0.46126   0.04892   1.000
    O19     O    0.19700   0.28465   0.78780   1.000
    O20     O    0.29603   0.43429   0.89840   1.000
    O21     O    0.63122   0.90469   0.38265   1.000
    O22     O    0.53909   0.76562   0.45065   1.000
    O23     O    0.71474   0.80251   0.71209   1.000
    O24     O    0.56586   0.70295   0.60132   1.000
    O25     O    0.90551   0.63049   0.88320   1.000
    O26     O    0.76642   0.53876   0.95111   1.000
    O27     O    0.80300   0.71537   0.21214   1.000
    O28     O    0.70395   0.56573   0.10160   1.000
    O29     O    0.36880   0.09531   0.61737   1.000
    Ts30    Ts   0.70995   0.86350   0.55304   1.000
    Ts31    Ts   0.70059   0.77963   0.53293   1.000
    Ts32    Ts   0.78016   0.70061   0.03306   1.000
    Ts33    Ts   0.86401   0.71006   0.05320   1.000
    Ts34    Ts   0.29940   0.22040   0.46707   1.000
    Ts35    Ts   0.29004   0.13652   0.44699   1.000
    Ts36    Ts   0.74863   0.25003   0.21344   1.000
    Ts37    Ts   0.74969   0.25091   0.28642   1.000
    Ts38    Ts   0.67950   0.22047   0.23706   1.000
    Ts39    Ts   0.77915   0.32022   0.26283   1.000
    Ts40    Ts   0.32049   0.77955   0.76295   1.000
    Ts41    Ts   0.22084   0.67981   0.73717   1.000
    Ts42    Ts   0.25136   0.74999   0.78659   1.000
    Ts43    Ts   0.25030   0.74911   0.71361   1.000
    Ts44    Ts   0.13598   0.28996   0.94682   1.000
    Ts45    Ts   0.21983   0.29941   0.96697   1.000
    Og46    Og   0.22202   0.48334   0.13527   1.000
    Og47    Og   0.31122   0.41323   0.81244   1.000
    Og48    Og   0.51706   0.77736   0.36427   1.000
    Og49    Og   0.58641   0.68805   0.68737   1.000
    Og50    Og   0.77797   0.51669   0.86471   1.000
    Og51    Og   0.68877   0.58679   0.18755   1.000
    Og52    Og   0.48294   0.22265   0.63575   1.000
    Og53    Og   0.41358   0.31198   0.31262   1.000
loop_
    _geom_bond_atom_site_label_1
    _geom_bond_atom_site_label_2
    _geom_bond_distance
    _geom_bond_site_symmetry_2
    _ccdc_geom_bond_type
    Zn1    O28       1.96203      .   S
    Zn1    O26       1.94976  1_554   S
    O18    C6        1.30011      .   S
    O18    Zn5       1.94987  1_554   S
    O28    C14       1.30334      .   S
    C6     O17       1.24936      .   S
    C14    O27       1.24931      .   S
    O9     C16       1.24911      .   S
    C16    O10       1.30361      .   S
    O21    C11       1.24898      .   S
    C11    O22       1.30137      .   S
    O10    Zn2       1.96210      .   S
    O22    Zn0       1.95062      .   S
    Zn2    O8        1.95052      .   S
    Zn0    O24       1.96207      .   S
    O8     C15       1.30139      .   S
    O24    C12       1.30246      .   S
    C15    O29       1.24900      .   S
    C12    O23       1.24943      .   S
    O19    C7        1.24949      .   S
    C7     O20       1.30370      .   S
    O25    C13       1.24896      .   S
    C13    O26       1.30141      .   S
    O20    Zn5       1.96227      .   S
    Zn0    Ts30      0.66687      .   S
    Zn0    Ts31      0.69172      .   S
    Zn1    Ts32      0.69151      .   S
    Zn1    Ts33      0.66693      .   S
    Zn2    Ts34      0.69163      .   S
    Zn2    Ts35      0.66687      .   S
    Zn3    Ts36      0.68692      .   S
    Zn3    Ts37      0.68694      .   S
    Zn3    Ts38      0.67826      .   S
    Zn3    Ts39      0.67818      .   S
    Zn4    Ts40      0.67823      .   S
    Zn4    Ts41      0.67821      .   S
    Zn4    Ts42      0.68687      .   S
    Zn4    Ts43      0.68699      .   S
    Zn5    Ts44      0.66692      .   S
    Zn5    Ts45      0.69152      .   S
    C6     Og46      0.50236      .   S
    C7     Og47      0.50159      .   S
    C11    Og48      0.50206      .   S
    C12    Og49      0.50189      .   S
    C13    Og50      0.50211      .   S
    C14    Og51      0.50176      .   S
    C15    Og52      0.50206      .   S
    C16    Og53      0.50160      .   S
