# CIF file generated by openbabel 2.4.90, see http://openbabel.sf.net
data_I
_chemical_name_common ''
_cell_length_a 13.063
_cell_length_b 13.036
_cell_length_c 17.836
_cell_angle_alpha 98.267
_cell_angle_beta 98.318
_cell_angle_gamma 118.299
_space_group_name_H-M_alt 'P 1'
_space_group_name_Hall 'P 1'
loop_
    _symmetry_equiv_pos_as_xyz
    x,y,z
loop_
    _atom_site_label
    _atom_site_type_symbol
    _atom_site_fract_x
    _atom_site_fract_y
    _atom_site_fract_z
    _atom_site_occupancy
    N0      N    0.28160   0.97408   0.05084   1.000
    N1      N    0.63372   0.36639   0.75021   1.000
    N2      N    0.02587   0.71845   0.44935   1.000
    N3      N    0.97412   0.28157   0.55066   1.000
    N4      N    0.71839   0.02594   0.94918   1.000
    N5      N    0.54502   0.45560   0.25010   1.000
    N6      N    0.45497   0.54443   0.74993   1.000
    N7      N    0.36627   0.63363   0.24981   1.000
    Zr8     Zr   0.61151   0.78666   0.53574   1.000
    O9      O    0.56276   0.69761   0.62880   1.000
    O10     O    0.73216   0.93680   0.54530   1.000
    O11     O    0.74159   0.76457   0.51244   1.000
    O12     O    0.52252   0.74247   0.41842   1.000
    Zr13    Zr   0.38848   0.21336   0.46428   1.000
    O14     O    0.26784   0.06322   0.45471   1.000
    O15     O    0.25841   0.23546   0.48757   1.000
    O16     O    0.47748   0.25755   0.58159   1.000
    O17     O    0.43723   0.30241   0.37121   1.000
    Zr18    Zr   0.21259   0.38860   0.96394   1.000
    O19     O    0.30168   0.43705   0.87096   1.000
    O20     O    0.25698   0.47761   0.08121   1.000
    O21     O    0.06269   0.26788   0.95446   1.000
    O22     O    0.23494   0.25847   0.98743   1.000
    Zr23    Zr   0.78739   0.61143   0.03605   1.000
    O24     O    0.74300   0.52242   0.91878   1.000
    O25     O    0.69831   0.56298   0.12904   1.000
    O26     O    0.76504   0.74156   0.01257   1.000
    O27     O    0.93729   0.73214   0.04554   1.000
    Zr28    Zr   0.26088   0.73951   0.75009   1.000
    O29     O    0.17417   0.60264   0.69539   1.000
    O30     O    0.19816   0.73785   0.66122   1.000
    O31     O    0.39761   0.82613   0.80468   1.000
    O32     O    0.26249   0.80208   0.83896   1.000
    Zr33    Zr   0.73911   0.26051   0.24994   1.000
    O34     O    0.80183   0.26218   0.33880   1.000
    O35     O    0.60238   0.17389   0.19533   1.000
    O36     O    0.82582   0.39739   0.30463   1.000
    O37     O    0.73750   0.19794   0.16106   1.000
loop_
    _geom_bond_atom_site_label_1
    _geom_bond_atom_site_label_2
    _geom_bond_distance
    _geom_bond_site_symmetry_2
    _ccdc_geom_bond_type
    Zr8    O9        2.16043      .   S
    N6     O9        3.17692      .   S
    Zr8    O10       1.80141      .   S
    N3     O10       4.06443  1_545   S
    Zr8    O11       1.94333      .   S
    N2     O11       4.30692  1_455   S
    Zr8    O12       2.09193      .   S
    N7     O12       3.07801      .   S
    Zr13   O14       1.80141      .   S
    N2     O14       4.06438  1_565   S
    Zr13   O15       1.94334      .   S
    N3     O15       4.30700  1_655   S
    Zr13   O16       2.09195      .   S
    N1     O16       3.07800      .   S
    Zr13   O17       2.16048      .   S
    N5     O17       3.17673      .   S
    Zr18   O19       2.16022      .   S
    N6     O19       3.17659      .   S
    Zr18   O20       2.09062  1_556   S
    N7     O20       3.07634      .   S
    Zr18   O21       1.80142      .   S
    N4     O21       4.06543  1_655   S
    Zr18   O22       1.94349      .   S
    N0     O22       4.30612  1_564   S
    Zr23   O24       2.09054  1_554   S
    N1     O24       3.07605      .   S
    Zr23   O25       2.16039      .   S
    N5     O25       3.17694      .   S
    Zr23   O26       1.94336      .   S
    N4     O26       4.30599  1_546   S
    Zr23   O27       1.80137      .   S
    N0     O27       4.06539  1_455   S
    Zr28   O29       1.63765      .   S
    N3     O29       3.94729  1_655   S
    Zr28   O30       1.66776      .   S
    N2     O30       4.01679      .   S
    Zr28   O31       1.63762      .   S
    N4     O31       3.94735  1_545   S
    Zr28   O32       1.66753      .   S
    N0     O32       4.01620  1_554   S
    Zr33   O34       1.66768      .   S
    N3     O34       4.01660      .   S
    Zr33   O35       1.63770      .   S
    N0     O35       3.94738  1_565   S
    Zr33   O36       1.63756      .   S
    N2     O36       3.94728  1_455   S
    Zr33   O37       1.66761      .   S
    N4     O37       4.01636  1_556   S
