# CIF file generated by openbabel 2.4.90, see http://openbabel.sf.net
data_I
_chemical_name_common 'VESTA_phase_1'
_cell_length_a 22.684
_cell_length_b 12.99
_cell_length_c 12.986
_cell_angle_alpha 117.495
_cell_angle_beta 94.955
_cell_angle_gamma 85.039
_space_group_name_H-M_alt 'P 1'
_space_group_name_Hall 'P 1'
loop_
    _symmetry_equiv_pos_as_xyz
    x,y,z
loop_
    _atom_site_label
    _atom_site_type_symbol
    _atom_site_fract_x
    _atom_site_fract_y
    _atom_site_fract_z
    _atom_site_occupancy
    Zn0     Zn   0.43508   0.49516   0.97368   1.000
    Zn1     Zn   0.93509   0.49516   0.97368   1.000
    Zn2     Zn   0.31492   0.97366   0.49510   1.000
    Zn3     Zn   0.81492   0.97366   0.49510   1.000
    Zn4     Zn   0.06492   0.50484   0.02633   1.000
    Zn5     Zn   0.56492   0.50484   0.02633   1.000
    Zn6     Zn   0.18509   0.02634   0.50485   1.000
    Zn7     Zn   0.68509   0.02634   0.50485   1.000
    H8      H    0.37365   0.79655   0.30266   1.000
    H9      H    0.87365   0.79655   0.30266   1.000
    H10     H    0.05791   0.74744   0.38819   1.000
    H11     H    0.55792   0.74744   0.38819   1.000
    H12     H    0.04156   0.90034   0.59164   1.000
    H13     H    0.54156   0.90034   0.59164   1.000
    H14     H    0.09459   0.81852   0.96890   1.000
    H15     H    0.59459   0.81853   0.96898   1.000
    H16     H    0.42278   0.70581   0.80630   1.000
    H17     H    0.92278   0.70581   0.80630   1.000
    H18     H    0.41709   0.86460   0.74430   1.000
    H19     H    0.91709   0.86460   0.74430   1.000
    H20     H    0.37636   0.30264   0.79657   1.000
    H21     H    0.87636   0.30264   0.79657   1.000
    H22     H    0.19210   0.38816   0.74730   1.000
    H23     H    0.69210   0.38816   0.74730   1.000
    H24     H    0.20844   0.59157   0.90025   1.000
    H25     H    0.70844   0.59157   0.90025   1.000
    H26     H    0.15541   0.96906   0.81873   1.000
    H27     H    0.65541   0.96907   0.81873   1.000
    H28     H    0.32720   0.80633   0.70582   1.000
    H29     H    0.82720   0.80633   0.70582   1.000
    H30     H    0.33289   0.74422   0.86457   1.000
    H31     H    0.83289   0.74422   0.86457   1.000
    H32     H    0.12635   0.20345   0.69735   1.000
    H33     H    0.62635   0.20345   0.69735   1.000
    H34     H    0.44209   0.25256   0.61182   1.000
    H35     H    0.94209   0.25256   0.61182   1.000
    H36     H    0.45845   0.09966   0.40837   1.000
    H37     H    0.95845   0.09966   0.40837   1.000
    H38     H    0.40541   0.18147   0.03100   1.000
    H39     H    0.90541   0.18147   0.03104   1.000
    H40     H    0.07722   0.29418   0.19370   1.000
    H41     H    0.57722   0.29418   0.19370   1.000
    H42     H    0.08292   0.13538   0.25500   1.000
    H43     H    0.58292   0.13539   0.25570   1.000
    H44     H    0.12365   0.69735   0.20340   1.000
    H45     H    0.62365   0.69735   0.20340   1.000
    H46     H    0.30790   0.61183   0.25264   1.000
    H47     H    0.80791   0.61183   0.25264   1.000
    H48     H    0.29156   0.40842   0.09975   1.000
    H49     H    0.79156   0.40842   0.09975   1.000
    H50     H    0.34459   0.03093   0.18127   1.000
    H51     H    0.84459   0.03093   0.18128   1.000
    H52     H    0.17280   0.19368   0.29419   1.000
    H53     H    0.67281   0.19367   0.29419   1.000
    H54     H    0.16712   0.25578   0.13544   1.000
    H55     H    0.66712   0.25578   0.13544   1.000
    C56     C    0.47486   0.66292   0.20860   1.000
    C57     C    0.97486   0.66292   0.20860   1.000
    C58     C    0.46650   0.75759   0.33020   1.000
    C59     C    0.96651   0.75758   0.33023   1.000
    C60     C    0.41191   0.81692   0.36406   1.000
    C61     C    0.91191   0.81691   0.36406   1.000
    C62     C    0.01420   0.78963   0.41312   1.000
    C63     C    0.51420   0.78963   0.41312   1.000
    C64     C    0.00527   0.87460   0.52566   1.000
    C65     C    0.50527   0.87460   0.52566   1.000
    C66     C    0.44880   0.92883   0.55377   1.000
    C67     C    0.94880   0.92883   0.55377   1.000
    C68     C    0.00311   0.92283   0.82780   1.000
    C69     C    0.50311   0.92283   0.82780   1.000
    C70     C    0.05434   0.82618   0.92008   1.000
    C71     C    0.55434   0.82618   0.92008   1.000
    C72     C    0.00847   0.75067   0.89351   1.000
    C73     C    0.50848   0.75066   0.89350   1.000
    C74     C    0.45855   0.76440   0.82860   1.000
    C75     C    0.95855   0.76440   0.82864   1.000
    C76     C    0.01029   0.65991   0.93488   1.000
    C77     C    0.51029   0.65991   0.93488   1.000
    C78     C    0.45538   0.85112   0.79396   1.000
    C79     C    0.95538   0.85111   0.79396   1.000
    C80     C    0.27516   0.20865   0.66292   1.000
    C81     C    0.77516   0.20865   0.66292   1.000
    C82     C    0.28351   0.33020   0.75756   1.000
    C83     C    0.78351   0.33020   0.75750   1.000
    C84     C    0.33810   0.36404   0.81691   1.000
    C85     C    0.83810   0.36404   0.81691   1.000
    C86     C    0.23581   0.41309   0.78957   1.000
    C87     C    0.73581   0.41309   0.78957   1.000
    C88     C    0.24473   0.52560   0.87455   1.000
    C89     C    0.74474   0.52560   0.87455   1.000
    C90     C    0.30120   0.55370   0.92880   1.000
    C91     C    0.80120   0.55370   0.92880   1.000
    C92     C    0.24687   0.82777   0.92291   1.000
    C93     C    0.74687   0.82777   0.92291   1.000
    C94     C    0.19566   0.92014   0.82633   1.000
    C95     C    0.69566   0.92014   0.82633   1.000
    C96     C    0.24152   0.89356   0.75077   1.000
    C97     C    0.74152   0.89356   0.75077   1.000
    C98     C    0.29143   0.82865   0.76444   1.000
    C99     C    0.79144   0.82865   0.76444   1.000
    C100    C    0.23970   0.93498   0.66002   1.000
    C101    C    0.73971   0.93498   0.66002   1.000
    C102    C    0.29461   0.79395   0.85116   1.000
    C103    C    0.79461   0.79395   0.85116   1.000
    C104    C    0.02514   0.33708   0.79134   1.000
    C105    C    0.52515   0.33708   0.79134   1.000
    C106    C    0.03350   0.24241   0.66978   1.000
    C107    C    0.53350   0.24241   0.66978   1.000
    C108    C    0.08809   0.18308   0.63595   1.000
    C109    C    0.58809   0.18308   0.63595   1.000
    C110    C    0.48580   0.21037   0.58689   1.000
    C111    C    0.98580   0.21037   0.58689   1.000
    C112    C    0.49474   0.12541   0.47435   1.000
    C113    C    0.99474   0.12540   0.47435   1.000
    C114    C    0.05121   0.07116   0.44624   1.000
    C115    C    0.55121   0.07116   0.44624   1.000
    C116    C    0.49689   0.07717   0.17221   1.000
    C117    C    0.99689   0.07716   0.17221   1.000
    C118    C    0.44566   0.17382   0.07993   1.000
    C119    C    0.94567   0.17382   0.07993   1.000
    C120    C    0.49153   0.24933   0.10650   1.000
    C121    C    0.99153   0.24933   0.10650   1.000
    C122    C    0.04145   0.23559   0.17136   1.000
    C123    C    0.54146   0.23559   0.17137   1.000
    C124    C    0.48971   0.34009   0.06510   1.000
    C125    C    0.98972   0.34009   0.06510   1.000
    C126    C    0.04463   0.14888   0.20604   1.000
    C127    C    0.54463   0.14888   0.20604   1.000
    C128    C    0.22485   0.79134   0.33709   1.000
    C129    C    0.72485   0.79134   0.33709   1.000
    C130    C    0.21649   0.66979   0.24245   1.000
    C131    C    0.71650   0.66979   0.24245   1.000
    C132    C    0.16191   0.63596   0.18310   1.000
    C133    C    0.66191   0.63596   0.18310   1.000
    C134    C    0.26419   0.58690   0.21044   1.000
    C135    C    0.76420   0.58691   0.21044   1.000
    C136    C    0.25527   0.47440   0.12545   1.000
    C137    C    0.75527   0.47440   0.12540   1.000
    C138    C    0.19880   0.44629   0.07121   1.000
    C139    C    0.69880   0.44629   0.07121   1.000
    C140    C    0.25313   0.17223   0.07710   1.000
    C141    C    0.75313   0.17223   0.07710   1.000
    C142    C    0.30434   0.07986   0.17368   1.000
    C143    C    0.80435   0.07986   0.17368   1.000
    C144    C    0.25848   0.10643   0.24924   1.000
    C145    C    0.75849   0.10643   0.24924   1.000
    C146    C    0.20857   0.17136   0.23557   1.000
    C147    C    0.70857   0.17136   0.23557   1.000
    C148    C    0.26030   0.06502   0.33999   1.000
    C149    C    0.76030   0.06502   0.33999   1.000
    C150    C    0.20539   0.20605   0.14885   1.000
    C151    C    0.70539   0.20605   0.14885   1.000
    S152    S    0.00741   0.04213   0.79536   1.000
    S153    S    0.50742   0.04213   0.79536   1.000
    S154    S    0.43194   0.03800   0.69629   1.000
    S155    S    0.93194   0.03800   0.69629   1.000
    S156    S    0.24257   0.79524   0.04210   1.000
    S157    S    0.74257   0.79524   0.04210   1.000
    S158    S    0.31805   0.69617   0.03796   1.000
    S159    S    0.81805   0.69617   0.03796   1.000
    S160    S    0.49259   0.95787   0.20460   1.000
    S161    S    0.99259   0.95787   0.20460   1.000
    S162    S    0.06806   0.96199   0.30372   1.000
    S163    S    0.56806   0.96199   0.30372   1.000
    S164    S    0.25744   0.20476   0.95786   1.000
    S165    S    0.75744   0.20476   0.95786   1.000
    S166    S    0.18196   0.30382   0.96205   1.000
    S167    S    0.68196   0.30382   0.96205   1.000
    N168    N    0.05175   0.91157   0.88847   1.000
    N169    N    0.55175   0.91157   0.88847   1.000
    N170    N    0.40265   0.90157   0.47336   1.000
    N171    N    0.90266   0.90157   0.47336   1.000
    N172    N    0.19824   0.88847   0.91170   1.000
    N173    N    0.69825   0.88847   0.91170   1.000
    N174    N    0.34734   0.47332   0.90155   1.000
    N175    N    0.84735   0.47332   0.90155   1.000
    N176    N    0.44825   0.08843   0.11150   1.000
    N177    N    0.94826   0.08843   0.11150   1.000
    N178    N    0.09735   0.09843   0.52660   1.000
    N179    N    0.59735   0.09843   0.52660   1.000
    N180    N    0.30176   0.11152   0.08831   1.000
    N181    N    0.80176   0.11153   0.08831   1.000
    N182    N    0.15266   0.52668   0.09840   1.000
    N183    N    0.65266   0.52668   0.09846   1.000
    O184    O    0.05996   0.63304   0.97241   1.000
    O185    O    0.55996   0.63305   0.97240   1.000
    O186    O    0.46077   0.61729   0.92907   1.000
    O187    O    0.96077   0.61729   0.92907   1.000
    O188    O    0.02815   0.63274   0.18066   1.000
    O189    O    0.52815   0.63274   0.18066   1.000
    O190    O    0.42840   0.62091   0.14512   1.000
    O191    O    0.92840   0.62092   0.14512   1.000
    O192    O    0.19004   0.97251   0.63317   1.000
    O193    O    0.69004   0.97252   0.63317   1.000
    O194    O    0.28922   0.92913   0.61736   1.000
    O195    O    0.78922   0.92913   0.61736   1.000
    O196    O    0.22186   0.18067   0.63274   1.000
    O197    O    0.72186   0.18067   0.63274   1.000
    O198    O    0.32161   0.14511   0.62089   1.000
    O199    O    0.82162   0.14511   0.62089   1.000
    O200    O    0.44005   0.36695   0.02759   1.000
    O201    O    0.94005   0.36695   0.02760   1.000
    O202    O    0.03923   0.38271   0.07094   1.000
    O203    O    0.53924   0.38271   0.07094   1.000
    O204    O    0.47185   0.36726   0.81935   1.000
    O205    O    0.97185   0.36726   0.81935   1.000
    O206    O    0.07160   0.37908   0.85489   1.000
    O207    O    0.57160   0.37908   0.85489   1.000
    O208    O    0.30997   0.02748   0.36683   1.000
    O209    O    0.80997   0.02748   0.36683   1.000
    O210    O    0.21078   0.07087   0.38265   1.000
    O211    O    0.71078   0.07087   0.38265   1.000
    O212    O    0.27814   0.81933   0.36727   1.000
    O213    O    0.77814   0.81933   0.36727   1.000
    O214    O    0.17839   0.85489   0.37911   1.000
    O215    O    0.67839   0.85489   0.37910   1.000
loop_
    _geom_bond_atom_site_label_1
    _geom_bond_atom_site_label_2
    _geom_bond_distance
    _geom_bond_site_symmetry_2
    _ccdc_geom_bond_type
    Zn4    O202      2.06368      .   S
    Zn4    N182      2.10912      .   S
    Zn4    O188      2.10880      .   S
    Zn4    O206      2.07496  1_554   S
    Zn4    O184      2.07538  1_554   S
    Zn5    O203      2.06371      .   S
    Zn5    N183      2.10935      .   S
    Zn5    O189      2.10878      .   S
    Zn5    O207      2.07496  1_554   S
    Zn5    O185      2.07551  1_554   S
    O200   C124      1.27381      .   S
    O200   Zn0       2.07533  1_554   S
    O201   C125      1.27378      .   S
    O201   Zn1       2.07538  1_554   S
    H38    C118      1.09076      .   S
    H39    C119      1.09048      .   S
    S158   S156      2.03994      .   S
    S158   C90       1.78520  1_554   S
    S159   S157      2.03996      .   S
    S159   C91       1.78522  1_554   S
    S156   C92       1.79469  1_554   S
    S157   C93       1.79468  1_554   S
    C125   O202      1.27588  1_655   S
    C125   C121      1.50128      .   S
    C124   O203      1.27596      .   S
    C124   C120      1.50124      .   S
    C139   N183      1.35832      .   S
    C139   C137      1.39898      .   S
    C139   S167      1.78522  1_554   S
    C138   N182      1.35833      .   S
    C138   C136      1.39917      .   S
    C138   S166      1.78521  1_554   S
    C140   N180      1.33702      .   S
    C140   C150      1.39564      .   S
    C140   S164      1.79530  1_554   S
    C141   N181      1.33701      .   S
    C141   C151      1.39568      .   S
    C141   S165      1.79530  1_554   S
    C118   C120      1.40200      .   S
    C118   N176      1.34404      .   S
    C119   C121      1.40199      .   S
    C119   N177      1.34404      .   S
    N181   C143      1.34436      .   S
    N180   C142      1.34436      .   S
    N182   C132      1.35606      .   S
    N183   C133      1.35583      .   S
    H48    C136      1.08856      .   S
    H49    C137      1.08853      .   S
    C120   C123      1.40115      .   S
    C121   C122      1.40099  1_655   S
    N177   C117      1.33730      .   S
    N176   C116      1.33732      .   S
    C137   C135      1.38520      .   S
    C136   C134      1.38500      .   S
    H55    C151      1.08728      .   S
    H54    C150      1.08730      .   S
    O190   C56       1.27355      .   S
    O190   Zn0       2.07496  1_554   S
    O191   C57       1.27354      .   S
    O191   Zn1       2.07496  1_554   S
    C150   C146      1.38764      .   S
    C151   C147      1.38764      .   S
    C122   H40       1.08808      .   S
    C122   C126      1.38762      .   S
    C123   H41       1.08806      .   S
    C123   C127      1.38760      .   S
    C116   S160      1.79530  1_545   S
    C116   C127      1.39566      .   S
    C117   S161      1.79528  1_545   S
    C117   C126      1.39558  1_655   S
    C143   H51       1.09053      .   S
    C143   C145      1.40201      .   S
    C142   H50       1.09050      .   S
    C142   C144      1.40199      .   S
    O189   C56       1.26863      .   S
    O188   C57       1.26852  1_455   S
    C133   H45       1.08832      .   S
    C133   C131      1.39173      .   S
    C132   H44       1.08830      .   S
    C132   C130      1.39173      .   S
    S160   S163      2.04019      .   S
    S161   S162      2.04010  1_655   S
    C127   H43       1.08730      .   S
    C126   H42       1.08195      .   S
    C56    C58       1.50335      .   S
    C57    C59       1.50361      .   S
    C134   C130      1.40206      .   S
    C134   H46       1.08908      .   S
    C135   C131      1.40205      .   S
    C135   H47       1.08908      .   S
    C147   C145      1.40112      .   S
    C147   H53       1.08808      .   S
    C146   C144      1.40112      .   S
    C146   H52       1.08808      .   S
    C131   C129      1.50304      .   S
    C130   C128      1.50305      .   S
    C144   C148      1.50102      .   S
    C145   C149      1.50102      .   S
    H8     C60       1.08826      .   S
    H9     C61       1.08827      .   S
    S162   C114      1.78539  1_565   S
    S163   C115      1.78540  1_565   S
    C58    C60       1.39176      .   S
    C58    C63       1.40224      .   S
    C59    C61       1.39169      .   S
    C59    C62       1.40195  1_655   S
    C128   O212      1.26881      .   S
    C128   O214      1.27390      .   S
    C129   O213      1.26883      .   S
    C129   O215      1.27385      .   S
    C148   O208      1.27390      .   S
    C148   O210      1.27604      .   S
    C149   O209      1.27387      .   S
    C149   O211      1.27606      .   S
    C61    N171      1.35584      .   S
    C60    N170      1.35583      .   S
    O209   Zn3       2.07496  1_545   S
    O208   Zn2       2.07496  1_545   S
    O213   Zn3       2.10895      .   S
    O212   Zn2       2.10895      .   S
    O215   Zn7       2.07542  1_565   S
    O214   Zn6       2.07538  1_565   S
    O210   Zn6       2.06352      .   S
    O211   Zn7       2.06352      .   S
    H11    C63       1.08910      .   S
    H10    C62       1.08910      .   S
    H37    C113      1.08853      .   S
    H36    C112      1.08853      .   S
    C63    C65       1.38498      .   S
    C62    C64       1.38498      .   S
    C115   C112      1.39922      .   S
    C115   N179      1.35798      .   S
    C114   C113      1.39913  1_455   S
    C114   N178      1.35796      .   S
    N171   Zn3       2.10915      .   S
    N171   C67       1.35836      .   S
    N170   Zn2       2.10915      .   S
    N170   C66       1.35836      .   S
    C112   C110      1.38497      .   S
    C113   C111      1.38498      .   S
    Zn3    O195      2.06422      .   S
    Zn3    O199      2.07558  1_565   S
    Zn2    O194      2.06421      .   S
    Zn2    O198      2.07559  1_565   S
    Zn6    N178      2.10916      .   S
    Zn6    O196      2.10920      .   S
    Zn6    O192      2.07559  1_545   S
    Zn7    N179      2.10914      .   S
    Zn7    O197      2.10922      .   S
    Zn7    O193      2.07558  1_545   S
    C64    C67       1.39912  1_455   S
    C64    H12       1.08853      .   S
    C65    C66       1.39923      .   S
    C65    H13       1.08853      .   S
    N179   C109      1.35628      .   S
    N178   C108      1.35628      .   S
    C66    S154      1.78539  1_565   S
    C67    S155      1.78539  1_565   S
    C111   H35       1.08910      .   S
    C111   C106      1.40193  1_655   S
    C110   H34       1.08908      .   S
    C110   C107      1.40203      .   S
    O195   C101      1.27605      .   S
    O194   C100      1.27607      .   S
    O198   C80       1.27389      .   S
    O199   C81       1.27390      .   S
    O197   C81       1.26881      .   S
    O196   C80       1.26883      .   S
    O193   C101      1.27394      .   S
    O192   C100      1.27393      .   S
    C108   C106      1.39171      .   S
    C108   H32       1.08826      .   S
    C109   C107      1.39169      .   S
    C109   H33       1.08827      .   S
    C100   C96       1.50100      .   S
    C101   C97       1.50100      .   S
    C81    C83       1.50280      .   S
    C80    C82       1.50305      .   S
    C107   C105      1.50300      .   S
    C106   C104      1.50299      .   S
    S155   S152      2.03974  1_655   S
    S154   S153      2.03983      .   S
    H28    C98       1.08809      .   S
    H29    C99       1.08808      .   S
    H19    C79       1.08731      .   S
    H18    C78       1.08727      .   S
    H23    C87       1.08934      .   S
    H22    C86       1.08934      .   S
    C96    C98       1.40111      .   S
    C96    C94       1.40202      .   S
    C97    C99       1.40111      .   S
    C97    C95       1.40201      .   S
    C83    C87       1.40206      .   S
    C83    C85       1.39199      .   S
    C82    C86       1.40205      .   S
    C82    C84       1.39173      .   S
    C98    C102      1.38763      .   S
    C99    C103      1.38764      .   S
    C87    C89       1.38497      .   S
    C86    C88       1.38498      .   S
    C105   O204      1.26883      .   S
    C105   O207      1.27388      .   S
    C104   O205      1.26872  1_455   S
    C104   O206      1.27388      .   S
    C78    C69       1.39565      .   S
    C78    C74       1.38733      .   S
    C79    C68       1.39557  1_655   S
    C79    C75       1.38763      .   S
    S153   C69       1.79574  1_545   S
    S152   C68       1.79572  1_545   S
    H21    C85       1.08830      .   S
    H20    C84       1.08830      .   S
    H16    C74       1.08812      .   S
    H17    C75       1.08807      .   S
    C85    N175      1.35583      .   S
    C84    N174      1.35583      .   S
    H27    C95       1.09053      .   S
    H26    C94       1.09054      .   S
    O205   Zn1       2.10880      .   S
    O204   Zn0       2.10879      .   S
    C95    N173      1.34436      .   S
    C94    N172      1.34435      .   S
    C69    N169      1.33700      .   S
    C68    N168      1.33699      .   S
    C74    C73       1.40136      .   S
    C75    C72       1.40104  1_655   S
    C102   H30       1.08728      .   S
    C102   C92       1.39568      .   S
    C103   H31       1.08728      .   S
    C103   C93       1.39568      .   S
    C88    H24       1.08854      .   S
    C88    C90       1.39921      .   S
    C89    H25       1.08856      .   S
    C89    C91       1.39919      .   S
    N169   C71       1.34439      .   S
    N168   C70       1.34438      .   S
    C73    C71       1.40198      .   S
    C73    C77       1.50104      .   S
    C72    C70       1.40200      .   S
    C72    C76       1.50099      .   S
    N175   C91       1.35832      .   S
    N175   Zn1       2.10933      .   S
    N174   C90       1.35831      .   S
    N174   Zn0       2.10935      .   S
    N173   C93       1.33701      .   S
    N172   C92       1.33702      .   S
    C71    H15       1.09054      .   S
    C70    H14       1.08998      .   S
    O187   C76       1.27596  1_655   S
    O187   Zn1       2.06367      .   S
    O186   C77       1.27604      .   S
    O186   Zn0       2.06371      .   S
    C76    O184      1.27394      .   S
    C77    O185      1.27387      .   S
    S165   S167      2.03984      .   S
    S164   S166      2.03982      .   S
    Zn0    Zn5       2.96550  1_556   S
    Zn1    Zn4       2.96541  1_656   S
    Zn2    Zn6       2.96535  1_565   S
    Zn3    Zn7       2.96537  1_565   S
