# CIF file generated by openbabel 2.4.90, see http://openbabel.sf.net
data_I
_chemical_name_common ''
_cell_length_a 12.884
_cell_length_b 13.185
_cell_length_c 16.252
_cell_angle_alpha 113.652
_cell_angle_beta 112.964
_cell_angle_gamma 90.493
_space_group_name_H-M_alt 'P 1'
_space_group_name_Hall 'P 1'
loop_
    _symmetry_equiv_pos_as_xyz
    x,y,z
loop_
    _atom_site_label
    _atom_site_type_symbol
    _atom_site_fract_x
    _atom_site_fract_y
    _atom_site_fract_z
    _atom_site_occupancy
    Zn0     Zn   0.02343   0.47920   0.61293   1.000
    Zn1     Zn   0.49010   0.59019   0.61517   1.000
    Zn2     Zn   0.12435   0.02518   0.61551   1.000
    Zn3     Zn   0.41130   0.86651   0.38707   1.000
    Zn4     Zn   0.97658   0.52076   0.38695   1.000
    Zn5     Zn   0.50990   0.40978   0.38470   1.000
    Zn6     Zn   0.87560   0.97475   0.38437   1.000
    H7      H    0.80673   0.11568   0.56393   1.000
    H8      H    0.64310   0.81847   0.23344   1.000
    H9      H    0.50795   0.78789   0.23189   1.000
    H10     H    0.75717   0.44795   0.56415   1.000
    H11     H    0.59189   0.41535   0.23365   1.000
    H12     H    0.72530   0.44502   0.23204   1.000
    H13     H    0.48296   0.80846   0.57151   1.000
    H14     H    0.37758   0.62442   0.22130   1.000
    H15     H    0.39885   0.49008   0.21839   1.000
    H16     H    0.08823   0.76307   0.57184   1.000
    H17     H    0.84690   0.59785   0.22152   1.000
    H18     H    0.82295   0.72915   0.21853   1.000
    H19     H    0.19324   0.88424   0.43597   1.000
    H20     H    0.35685   0.18149   0.76644   1.000
    H21     H    0.49199   0.21209   0.76799   1.000
    H22     H    0.24283   0.55205   0.43575   1.000
    H23     H    0.40811   0.58455   0.76621   1.000
    H24     H    0.27471   0.55488   0.76782   1.000
    Zn25    Zn   0.58865   0.13346   0.61281   1.000
    H26     H    0.51698   0.19149   0.42834   1.000
    H27     H    0.62237   0.37553   0.77855   1.000
    H28     H    0.60115   0.50989   0.78147   1.000
    H29     H    0.91172   0.23688   0.42803   1.000
    H30     H    0.15311   0.40210   0.77834   1.000
    H31     H    0.17704   0.27080   0.78133   1.000
    C32     C    0.62859   0.91010   0.36153   1.000
    C33     C    0.73428   0.05063   0.50230   1.000
    C34     C    0.72650   0.21883   0.81474   1.000
    C35     C    0.73383   0.45189   0.36170   1.000
    C36     C    0.76828   0.45170   0.50252   1.000
    C37     C    0.08700   0.59548   0.81475   1.000
    C38     C    0.42358   0.61489   0.35270   1.000
    C39     C    0.46779   0.73205   0.50508   1.000
    C40     C    0.59935   0.73068   0.81484   1.000
    C41     C    0.93130   0.73835   0.35283   1.000
    C42     C    0.03771   0.77320   0.50534   1.000
    C43     C    0.21397   0.08337   0.81465   1.000
    C44     C    0.37136   0.08986   0.63836   1.000
    C45     C    0.26569   0.94931   0.49759   1.000
    C46     C    0.27345   0.78116   0.18515   1.000
    C47     C    0.26617   0.54803   0.63816   1.000
    C48     C    0.23173   0.54828   0.49737   1.000
    C49     C    0.91300   0.40448   0.18514   1.000
    C50     C    0.57639   0.38507   0.64716   1.000
    C51     C    0.53217   0.26791   0.49477   1.000
    C52     C    0.40061   0.26930   0.18501   1.000
    C53     C    0.06869   0.26159   0.64703   1.000
    C54     C    0.96225   0.22674   0.49453   1.000
    C55     C    0.78594   0.91654   0.18520   1.000
    N56     N    0.63370   0.03360   0.50378   1.000
    N57     N    0.56355   0.94303   0.41253   1.000
    N58     N    0.73647   0.97722   0.41610   1.000
    N59     N    0.59460   0.82200   0.27173   1.000
    N60     N    0.87023   0.47051   0.50393   1.000
    N61     N    0.84956   0.47009   0.41265   1.000
    N62     N    0.68036   0.43896   0.41634   1.000
    N63     N    0.67833   0.45041   0.27193   1.000
    N64     N    0.48219   0.63309   0.50578   1.000
    N65     N    0.45345   0.55574   0.40741   1.000
    N66     N    0.43168   0.72659   0.41262   1.000
    N67     N    0.38638   0.57016   0.25378   1.000
    N68     N    0.02397   0.87284   0.50600   1.000
    N69     N    0.95541   0.85204   0.40754   1.000
    N70     N    0.98239   0.68642   0.41281   1.000
    N71     N    0.87098   0.68444   0.25379   1.000
    N72     N    0.36626   0.96635   0.49610   1.000
    N73     N    0.43640   0.05694   0.58734   1.000
    N74     N    0.26349   0.02272   0.58380   1.000
    N75     N    0.40535   0.17798   0.72814   1.000
    N76     N    0.12977   0.52946   0.49596   1.000
    N77     N    0.15045   0.52985   0.58723   1.000
    N78     N    0.31965   0.56099   0.58354   1.000
    N79     N    0.32167   0.54946   0.72792   1.000
    N80     N    0.51780   0.36687   0.49408   1.000
    N81     N    0.54654   0.44422   0.59245   1.000
    N82     N    0.56827   0.27337   0.58724   1.000
    N83     N    0.61360   0.42980   0.74608   1.000
    N84     N    0.97598   0.12710   0.49387   1.000
    N85     N    0.04456   0.14790   0.59233   1.000
    N86     N    0.01759   0.31353   0.58705   1.000
    N87     N    0.12903   0.31551   0.74607   1.000
    O88     O    0.64275   0.26640   0.81935   1.000
    O89     O    0.72909   0.15282   0.73176   1.000
    O90     O    0.17476   0.55166   0.81859   1.000
    O91     O    0.00150   0.57890   0.73211   1.000
    O92     O    0.55898   0.64569   0.81865   1.000
    O93     O    0.58213   0.73398   0.73217   1.000
    O94     O    0.25701   0.17204   0.81749   1.000
    O95     O    0.14890   0.99722   0.73242   1.000
    O96     O    0.35720   0.73358   0.18055   1.000
    O97     O    0.27085   0.84717   0.26813   1.000
    O98     O    0.82526   0.44831   0.18131   1.000
    O99     O    0.00000   0.42104   0.26777   1.000
    O100    O    0.44100   0.35426   0.18117   1.000
    O101    O    0.41785   0.26601   0.26769   1.000
    O102    O    0.74291   0.82785   0.18233   1.000
    O103    O    0.85100   0.00268   0.26743   1.000
    Og104   Og   0.76043   0.22573   0.84622   1.000
    Og105   Og   0.08486   0.62025   0.84640   1.000
    Og106   Og   0.62338   0.76456   0.84634   1.000
    Og107   Og   0.22180   0.08119   0.84636   1.000
    Og108   Og   0.23952   0.77424   0.15366   1.000
    Og109   Og   0.91513   0.37971   0.15348   1.000
    Og110   Og   0.37657   0.23541   0.15352   1.000
    Og111   Og   0.77811   0.91873   0.15350   1.000
loop_
    _geom_bond_atom_site_label_1
    _geom_bond_atom_site_label_2
    _geom_bond_distance
    _geom_bond_site_symmetry_2
    _ccdc_geom_bond_type
    O96    C46       1.26508      .   S
    O100   C52       1.26520      .   S
    O98    C49       1.26533      .   S
    O102   C55       1.26571      .   S
    C52    O101      1.29255      .   S
    C49    O99       1.30137  1_655   S
    C46    O97       1.29273      .   S
    C55    O103      1.29243  1_565   S
    H15    N67       1.02918      .   S
    H18    N71       1.02921      .   S
    H14    N67       1.03008      .   S
    H17    N71       1.03023      .   S
    H9     N59       1.03030      .   S
    H12    N63       1.03029      .   S
    H8     N59       1.02993      .   S
    H11    N63       1.03002      .   S
    N67    C38       1.33989      .   S
    N71    C41       1.34032      .   S
    O103   Zn6       1.98531  1_545   S
    O101   Zn5       1.98119      .   S
    O99    Zn4       1.99768  1_455   S
    O97    Zn3       1.98580      .   S
    N59    C32       1.34282      .   S
    N63    C35       1.34280      .   S
    C38    N65       1.35698      .   S
    C38    N66       1.37672      .   S
    C41    N69       1.35690      .   S
    C41    N70       1.37662      .   S
    C32    N57       1.35553      .   S
    C32    N58       1.37442      .   S
    C35    N61       1.35549      .   S
    C35    N62       1.37436      .   S
    Zn6    N69       2.00797      .   S
    Zn6    N58       2.04663      .   S
    Zn6    N84       2.04100  1_565   S
    Zn5    N65       2.00815      .   S
    Zn5    N62       2.04476      .   S
    Zn5    N80       2.03894      .   S
    Zn4    N61       2.00930      .   S
    Zn4    N70       2.04674      .   S
    Zn4    N76       2.03768  1_655   S
    Zn3    N57       2.00859      .   S
    Zn3    N66       2.04521      .   S
    Zn3    N72       2.03798      .   S
    N65    N64       1.39873      .   S
    N69    N68       1.39890  1_655   S
    N57    N56       1.39883  1_565   S
    N66    C39       1.35905      .   S
    N61    N60       1.39882      .   S
    N70    C42       1.35922  1_655   S
    N58    C33       1.35786  1_565   S
    N62    C36       1.35752      .   S
    H29    C54       1.08539      .   S
    H26    C51       1.08538      .   S
    H22    C48       1.08521      .   S
    H19    C45       1.08518      .   S
    N84    C54       1.32351      .   S
    N84    N85       1.39891  1_655   S
    N80    C51       1.32337      .   S
    N80    N81       1.39874      .   S
    C54    N86       1.35922  1_655   S
    C51    N82       1.35905      .   S
    N76    C48       1.32434      .   S
    N76    N77       1.39882      .   S
    N72    C45       1.32439      .   S
    N72    N73       1.39883  1_565   S
    C48    N78       1.35751      .   S
    C45    N74       1.35786  1_565   S
    C33    N56       1.32439      .   S
    C33    H7        1.08518      .   S
    C36    N60       1.32433      .   S
    C36    H10       1.08520      .   S
    N56    Zn25      2.03805      .   S
    N60    Zn0       2.03769  1_655   S
    C39    N64       1.32337      .   S
    C39    H13       1.08537      .   S
    C42    N68       1.32350      .   S
    C42    H16       1.08538      .   S
    N64    Zn1       2.03893      .   S
    N68    Zn2       2.04096  1_565   S
    N78    Zn1       2.04482      .   S
    N78    C47       1.37437      .   S
    N74    Zn2       2.04662      .   S
    N74    C44       1.37442      .   S
    N86    Zn0       2.04682      .   S
    N86    C53       1.37661      .   S
    N77    Zn0       2.00930      .   S
    N77    C47       1.35548      .   S
    N82    Zn25      2.04515      .   S
    N82    C50       1.37671      .   S
    N73    Zn25      2.00862      .   S
    N73    C44       1.35551      .   S
    N85    Zn2       2.00803      .   S
    N85    C53       1.35691      .   S
    N81    Zn1       2.00814      .   S
    N81    C50       1.35698      .   S
    Zn25   O89       1.98574      .   S
    Zn0    O91       1.98732      .   S
    Zn1    O93       1.98127      .   S
    Zn2    O95       1.98536  1_545   S
    C47    N79       1.34282      .   S
    C44    N75       1.34284      .   S
    C53    N87       1.34033      .   S
    C50    N83       1.33992      .   S
    N79    H23       1.03002      .   S
    N79    H24       1.03030      .   S
    N75    H20       1.02992      .   S
    N75    H21       1.03031      .   S
    O89    C34       1.29274      .   S
    O91    C37       1.29264      .   S
    O93    C40       1.29254      .   S
    O95    C43       1.29243  1_565   S
    N87    H30       1.03022      .   S
    N87    H31       1.02921      .   S
    N83    H27       1.03007      .   S
    N83    H28       1.02916      .   S
    C43    O94       1.26570      .   S
    C34    O88       1.26509      .   S
    C37    O90       1.26532      .   S
    C40    O92       1.26521      .   S
    C34    Og104     0.49858      .   S
    C37    Og105     0.49856      .   S
    C40    Og106     0.49798      .   S
    C43    Og107     0.49791      .   S
    C46    Og108     0.49859      .   S
    C49    Og109     0.49856      .   S
    C52    Og110     0.49798      .   S
    C55    Og111     0.49791      .   S
