# CIF file generated by openbabel 2.4.90, see http://openbabel.sf.net
data_I
_chemical_name_common ''
_cell_length_a 12.884
_cell_length_b 13.185
_cell_length_c 16.252
_cell_angle_alpha 113.652
_cell_angle_beta 112.964
_cell_angle_gamma 90.493
_space_group_name_H-M_alt 'P 1'
_space_group_name_Hall 'P 1'
loop_
    _symmetry_equiv_pos_as_xyz
    x,y,z
loop_
    _atom_site_label
    _atom_site_type_symbol
    _atom_site_fract_x
    _atom_site_fract_y
    _atom_site_fract_z
    _atom_site_occupancy
    Zn0     Zn   0.02343   0.47920   0.61293   1.000
    Zn1     Zn   0.49010   0.59019   0.61517   1.000
    Zn2     Zn   0.12435   0.02518   0.61551   1.000
    Zn3     Zn   0.41130   0.86651   0.38707   1.000
    Zn4     Zn   0.97658   0.52076   0.38695   1.000
    Zn5     Zn   0.50990   0.40978   0.38470   1.000
    Zn6     Zn   0.87560   0.97475   0.38437   1.000
    Zn7     Zn   0.58865   0.13346   0.61281   1.000
