# CIF file generated by openbabel 2.4.90, see http://openbabel.sf.net
data_I
_chemical_name_common ''
_cell_length_a 19.518
_cell_length_b 19.551
_cell_length_c 19.542
_cell_angle_alpha 72.051
_cell_angle_beta 71.978
_cell_angle_gamma 71.943
_space_group_name_H-M_alt 'P 1'
_space_group_name_Hall 'P 1'
loop_
    _symmetry_equiv_pos_as_xyz
    x,y,z
loop_
    _atom_site_label
    _atom_site_type_symbol
    _atom_site_fract_x
    _atom_site_fract_y
    _atom_site_fract_z
    _atom_site_occupancy
    Zr0     Zr   0.54822   0.31750   0.98144   1.000
    Zr1     Zr   0.64315   0.21476   0.87635   1.000
    Zr2     Zr   0.98131   0.54925   0.31692   1.000
    Zr3     Zr   0.87689   0.64316   0.21300   1.000
    Zr4     Zr   0.31645   0.97755   0.55034   1.000
    Zr5     Zr   0.21172   0.87505   0.64435   1.000
    Zr6     Zr   0.81602   0.04866   0.48102   1.000
    Zr7     Zr   0.71224   0.14243   0.37717   1.000
    Zr8     Zr   0.04964   0.47744   0.81788   1.000
    Zr9     Zr   0.14485   0.37443   0.71289   1.000
    Zr10    Zr   0.48188   0.81704   0.04940   1.000
    Zr11    Zr   0.37657   0.71483   0.14359   1.000
    Zr12    Zr   0.54770   0.44560   0.94349   1.000
    Zr13    Zr   0.48044   0.69282   0.00240   1.000
    Zr14    Zr   0.69005   0.21437   0.00166   1.000
    Zr15    Zr   0.74983   0.14424   0.24869   1.000
    Zr16    Zr   0.94338   0.54762   0.44540   1.000
    Zr17    Zr   0.00296   0.47751   0.69254   1.000
    Zr18    Zr   0.00125   0.69099   0.21397   1.000
    Zr19    Zr   0.24797   0.75176   0.14507   1.000
    Zr20    Zr   0.44505   0.94027   0.54898   1.000
    Zr21    Zr   0.69189   0.00076   0.48014   1.000
    Zr22    Zr   0.21280   0.99923   0.69162   1.000
    Zr23    Zr   0.14527   0.24635   0.75077   1.000
    Zr24    Zr   0.94455   0.04755   0.44277   1.000
    Zr25    Zr   0.19169   0.97793   0.50264   1.000
    Zr26    Zr   0.71277   0.19017   0.50164   1.000
    Zr27    Zr   0.64482   0.25139   0.74790   1.000
    Zr28    Zr   0.04801   0.44062   0.94631   1.000
    Zr29    Zr   0.98024   0.50168   0.19265   1.000
    Zr30    Zr   0.19114   0.49918   0.71444   1.000
    Zr31    Zr   0.24946   0.74678   0.64543   1.000
    Zr32    Zr   0.44371   0.94528   0.04847   1.000
    Zr33    Zr   0.50175   0.19292   0.97994   1.000
    Zr34    Zr   0.50132   0.71422   0.19141   1.000
    Zr35    Zr   0.74838   0.64432   0.25149   1.000
    Zr36    Zr   0.58419   0.40313   0.89896   1.000
    Zr37    Zr   0.50937   0.41914   0.00735   1.000
    Zr38    Zr   0.44276   0.66485   0.06526   1.000
    Zr39    Zr   0.48950   0.75909   0.98160   1.000
    Zr40    Zr   0.68571   0.18194   0.27583   1.000
    Zr41    Zr   0.79471   0.10757   0.29074   1.000
    Zr42    Zr   0.71076   0.20667   0.93486   1.000
    Zr43    Zr   0.62696   0.25118   0.03063   1.000
    Zr44    Zr   0.89866   0.58446   0.40323   1.000
    Zr45    Zr   0.00747   0.50976   0.41836   1.000
    Zr46    Zr   0.06609   0.44070   0.66365   1.000
    Zr47    Zr   0.98218   0.48527   0.75935   1.000
    Zr48    Zr   0.27509   0.68814   0.18326   1.000
    Zr49    Zr   0.29005   0.79652   0.10823   1.000
    Zr50    Zr   0.93458   0.71128   0.20567   1.000
    Zr51    Zr   0.03015   0.62825   0.25113   1.000
    Zr52    Zr   0.40292   0.89550   0.58557   1.000
    Zr53    Zr   0.41798   0.00405   0.51101   1.000
    Zr54    Zr   0.66323   0.06339   0.44265   1.000
    Zr55    Zr   0.75841   0.98050   0.48886   1.000
    Zr56    Zr   0.18371   0.27283   0.68695   1.000
    Zr57    Zr   0.10868   0.28880   0.79528   1.000
    Zr58    Zr   0.20395   0.93289   0.71234   1.000
    Zr59    Zr   0.25034   0.02737   0.62876   1.000
    Zr60    Zr   0.90210   0.08424   0.39831   1.000
    Zr61    Zr   0.91780   0.00948   0.50666   1.000
    Zr62    Zr   0.16273   0.94099   0.56545   1.000
    Zr63    Zr   0.25850   0.98581   0.48223   1.000
    Zr64    Zr   0.68264   0.18753   0.77506   1.000
    Zr65    Zr   0.60835   0.29649   0.78982   1.000
    Zr66    Zr   0.70412   0.21037   0.43521   1.000
    Zr67    Zr   0.75006   0.12741   0.53036   1.000
    Zr68    Zr   0.08477   0.39570   0.90427   1.000
    Zr69    Zr   0.00990   0.50436   0.91927   1.000
    Zr70    Zr   0.94311   0.56458   0.16399   1.000
    Zr71    Zr   0.98886   0.48131   0.25909   1.000
    Zr72    Zr   0.18546   0.77363   0.68350   1.000
    Zr73    Zr   0.29412   0.78899   0.60872   1.000
    Zr74    Zr   0.21218   0.43272   0.70570   1.000
    Zr75    Zr   0.12821   0.52727   0.75216   1.000
    Zr76    Zr   0.39902   0.90303   0.08478   1.000
    Zr77    Zr   0.50792   0.91847   0.01065   1.000
    Zr78    Zr   0.56471   0.16488   0.94222   1.000
    Zr79    Zr   0.48068   0.25933   0.98879   1.000
    Zr80    Zr   0.77519   0.68244   0.18765   1.000
    Zr81    Zr   0.79077   0.60755   0.29599   1.000
    Zr82    Zr   0.43444   0.70658   0.21179   1.000
    Zr83    Zr   0.53043   0.75102   0.12858   1.000
    O84     O    0.65850   0.23277   0.01615   1.000
    O85     O    0.70041   0.21052   0.96826   1.000
    O86     O    0.46160   0.67883   0.03383   1.000
    O87     O    0.48497   0.72595   0.99200   1.000
    O88     O    0.52853   0.43237   0.97542   1.000
    O89     O    0.52879   0.36832   0.99439   1.000
    O90     O    0.47581   0.93188   0.02956   1.000
    O91     O    0.49490   0.86776   0.03003   1.000
    O92     O    0.58759   0.28434   0.00604   1.000
    O93     O    0.42136   0.92415   0.06663   1.000
    O94     O    0.44045   0.86003   0.06709   1.000
    O95     O    0.50616   0.78403   0.08899   1.000
    O96     O    0.48569   0.78807   0.01550   1.000
    O97     O    0.40967   0.68984   0.10443   1.000
    O98     O    0.33331   0.75568   0.12591   1.000
    O99     O    0.26901   0.77414   0.12665   1.000
    O100    O    0.51588   0.73262   0.16000   1.000
    O101    O    0.32583   0.70148   0.16342   1.000
    O102    O    0.40551   0.71070   0.17769   1.000
    O103    O    0.26153   0.71995   0.16417   1.000
    O104    O    0.96168   0.53313   0.17832   1.000
    O105    O    0.91000   0.60387   0.18850   1.000
    O106    O    0.82604   0.66280   0.20033   1.000
    O107    O    0.76179   0.66338   0.21957   1.000
    O108    O    0.46788   0.71040   0.20160   1.000
    O109    O    0.98455   0.49150   0.22587   1.000
    O110    O    0.90574   0.67722   0.20934   1.000
    O111    O    0.96792   0.70113   0.20982   1.000
    O112    O    0.83383   0.62535   0.25449   1.000
    O113    O    0.01570   0.65962   0.23255   1.000
    O114    O    0.71777   0.16309   0.26226   1.000
    O115    O    0.77227   0.12591   0.26971   1.000
    O116    O    0.00573   0.58875   0.28403   1.000
    O117    O    0.76957   0.62593   0.27374   1.000
    O118    O    0.98508   0.51528   0.28801   1.000
    O119    O    0.69897   0.16219   0.32650   1.000
    O120    O    0.75347   0.12500   0.33396   1.000
    O121    O    0.93998   0.56685   0.36007   1.000
    O122    O    0.99439   0.52950   0.36764   1.000
    O123    O    0.70818   0.17640   0.40619   1.000
    O124    O    0.68773   0.10291   0.40991   1.000
    O125    O    0.92332   0.06589   0.42054   1.000
    O126    O    0.85906   0.06645   0.43967   1.000
    O127    O    0.92102   0.56604   0.42432   1.000
    O128    O    0.97543   0.52869   0.43188   1.000
    O129    O    0.70845   0.20027   0.46843   1.000
    O130    O    0.67756   0.03207   0.46140   1.000
    O131    O    0.93117   0.02852   0.47471   1.000
    O132    O    0.72515   0.99063   0.48450   1.000
    O133    O    0.78721   0.01458   0.48494   1.000
    O134    O    0.86691   0.02907   0.49384   1.000
    O135    O    0.78304   0.08803   0.50569   1.000
    O136    O    0.22509   0.98187   0.49244   1.000
    O137    O    0.28748   0.98168   0.51629   1.000
    O138    O    0.73142   0.15879   0.51600   1.000
    O139    O    0.17721   0.95946   0.53404   1.000
    O140    O    0.43151   0.97216   0.52999   1.000
    O141    O    0.36722   0.99080   0.53068   1.000
    O142    O    0.42398   0.91789   0.56728   1.000
    O143    O    0.35969   0.93653   0.56796   1.000
    O144    O    0.28340   0.00246   0.58955   1.000
    O145    O    0.18723   0.90802   0.60490   1.000
    O146    O    0.25292   0.83202   0.62654   1.000
    O147    O    0.27179   0.76788   0.62708   1.000
    O148    O    0.23157   0.01330   0.66019   1.000
    O149    O    0.19859   0.82434   0.66392   1.000
    O150    O    0.20784   0.90397   0.67834   1.000
    O151    O    0.21746   0.76020   0.66447   1.000
    O152    O    0.03452   0.45911   0.67810   1.000
    O153    O    0.10547   0.40757   0.68827   1.000
    O154    O    0.16428   0.32363   0.69992   1.000
    O155    O    0.16449   0.25959   0.71886   1.000
    O156    O    0.20838   0.96606   0.70198   1.000
    O157    O    0.99257   0.48139   0.72595   1.000
    O158    O    0.17851   0.40357   0.70930   1.000
    O159    O    0.20166   0.46595   0.71007   1.000
    O160    O    0.12676   0.33162   0.75409   1.000
    O161    O    0.15968   0.51323   0.73330   1.000
    O162    O    0.66373   0.21946   0.76148   1.000
    O163    O    0.62659   0.27394   0.76886   1.000
    O164    O    0.12697   0.26758   0.77302   1.000
    O165    O    0.08893   0.50236   0.78502   1.000
    O166    O    0.01591   0.48136   0.78862   1.000
    O167    O    0.66289   0.20114   0.82571   1.000
    O168    O    0.62575   0.25562   0.83308   1.000
    O169    O    0.06721   0.43657   0.86108   1.000
    O170    O    0.02977   0.49090   0.86858   1.000
    O171    O    0.67696   0.21071   0.90560   1.000
    O172    O    0.60393   0.18982   0.90929   1.000
    O173    O    0.56594   0.42436   0.92123   1.000
    O174    O    0.56621   0.36031   0.94020   1.000
    O175    O    0.06639   0.41816   0.92529   1.000
    O176    O    0.02896   0.47249   0.93279   1.000
    O177    O    0.53323   0.17890   0.96108   1.000
    O178    O    0.49121   0.22612   0.98437   1.000
    O179    O    0.51445   0.28841   0.98511   1.000
    N180    N    0.18433   0.18351   0.18504   1.000
    O181    O    0.17604   0.09015   0.33042   1.000
    O182    O    0.30843   0.08416   0.11750   1.000
    O183    O    0.08426   0.11616   0.30838   1.000
    O184    O    0.32977   0.17609   0.09188   1.000
    O185    O    0.11687   0.30666   0.08544   1.000
    O186    O    0.09157   0.32913   0.17690   1.000
    N187    N    0.68478   0.68328   0.68491   1.000
    O188    O    0.59193   0.67596   0.83034   1.000
    O189    O    0.67638   0.82859   0.59188   1.000
    O190    O    0.58473   0.80633   0.61761   1.000
    O191    O    0.83047   0.58987   0.67673   1.000
    O192    O    0.80856   0.61605   0.58496   1.000
    O193    O    0.61705   0.58418   0.80866   1.000
    N194    N    0.00829   0.00857   0.00918   1.000
    O195    O    0.07598   0.10772   0.88550   1.000
    O196    O    0.10831   0.88558   0.07646   1.000
    O197    O    0.86258   0.10199   0.01741   1.000
    O198    O    0.01670   0.86322   0.10220   1.000
    O199    O    0.10121   0.01597   0.86374   1.000
    O200    O    0.88456   0.07580   0.10913   1.000
    N201    N    0.50859   0.50845   0.50905   1.000
    O202    O    0.36314   0.51592   0.60230   1.000
    O203    O    0.60866   0.57576   0.38578   1.000
    O204    O    0.60137   0.36279   0.51727   1.000
    O205    O    0.57601   0.38532   0.60850   1.000
    O206    O    0.51691   0.60188   0.36366   1.000
    O207    O    0.38458   0.60784   0.57653   1.000
loop_
    _geom_bond_atom_site_label_1
    _geom_bond_atom_site_label_2
    _geom_bond_distance
    _geom_bond_site_symmetry_2
    _ccdc_geom_bond_type
    Zr14   O84       0.63743      .   S
    Zr43   O84       0.63743      .   S
    Zr14   O85       0.64168  1_554   S
    Zr42   O85       0.64168      .   S
    Zr13   O86       0.63741      .   S
    Zr38   O86       0.63741      .   S
    Zr13   O87       0.64194  1_554   S
    Zr39   O87       0.64194      .   S
    Zr37   O88       0.64207  1_554   S
    Zr12   O88       0.64207      .   S
    Zr37   O89       1.02816  1_554   S
    Zr0    O89       1.02816      .   S
    Zr77   O90       0.64225      .   S
    Zr32   O90       0.64225      .   S
    Zr77   O91       1.02780      .   S
    Zr10   O91       1.02780      .   S
    Zr43   O92       0.98458      .   S
    Zr0    O92       0.98458  1_556   S
    Zr32   O93       0.64212      .   S
    Zr76   O93       0.64212      .   S
    Zr10   O94       1.03183      .   S
    Zr76   O94       1.03183      .   S
    Zr10   O95       0.98442      .   S
    Zr83   O95       0.98442      .   S
    Zr10   O96       0.96954      .   S
    Zr39   O96       0.96954  1_556   S
    Zr38   O97       0.98524      .   S
    Zr11   O97       0.98524      .   S
    Zr49   O98       1.03078      .   S
    Zr11   O98       1.03078      .   S
    Zr49   O99       0.64233      .   S
    Zr19   O99       0.64233      .   S
    Zr83   O100      0.63743      .   S
    Zr34   O100      0.63743      .   S
    Zr11   O101      1.02933      .   S
    Zr48   O101      1.02933      .   S
    Zr11   O102      0.97004      .   S
    Zr82   O102      0.97004      .   S
    Zr19   O103      0.64197      .   S
    Zr48   O103      0.64197      .   S
    Zr70   O104      0.63741      .   S
    Zr29   O104      0.63741      .   S
    Zr70   O105      0.98210      .   S
    Zr3    O105      0.98210      .   S
    Zr80   O106      1.02524      .   S
    Zr3    O106      1.02524      .   S
    Zr80   O107      0.64234      .   S
    Zr35   O107      0.64234      .   S
    Zr34   O108      0.64181      .   S
    Zr82   O108      0.64181      .   S
    Zr29   O109      0.64182      .   S
    Zr71   O109      0.64182      .   S
    Zr50   O110      0.97139      .   S
    Zr3    O110      0.97139      .   S
    Zr50   O111      0.64183      .   S
    Zr18   O111      0.64183  1_455   S
    Zr3    O112      1.03484      .   S
    Zr81   O112      1.03484      .   S
    Zr18   O113      0.63745      .   S
    Zr51   O113      0.63745      .   S
    Zr15   O114      0.64216      .   S
    Zr40   O114      0.64216      .   S
    Zr15   O115      0.64215      .   S
    Zr41   O115      0.64215      .   S
    Zr51   O116      0.98465      .   S
    Zr2    O116      0.98465  1_655   S
    Zr35   O117      0.64202      .   S
    Zr81   O117      0.64202      .   S
    Zr71   O118      0.97001      .   S
    Zr2    O118      0.97001      .   S
    Zr40   O119      1.02841      .   S
    Zr7    O119      1.02841      .   S
    Zr41   O120      1.03142      .   S
    Zr7    O120      1.03142      .   S
    Zr2    O121      1.03251      .   S
    Zr44   O121      1.03251      .   S
    Zr2    O122      1.02777      .   S
    Zr45   O122      1.02777  1_455   S
    Zr7    O123      0.96993      .   S
    Zr66   O123      0.96993      .   S
    Zr7    O124      0.98499      .   S
    Zr54   O124      0.98499      .   S
    Zr60   O125      0.64201      .   S
    Zr24   O125      0.64201      .   S
    Zr60   O126      1.03325      .   S
    Zr6    O126      1.03325      .   S
    Zr44   O127      0.64208      .   S
    Zr16   O127      0.64208      .   S
    Zr45   O128      0.64228  1_455   S
    Zr16   O128      0.64228      .   S
    Zr66   O129      0.64188      .   S
    Zr26   O129      0.64188      .   S
    Zr54   O130      0.63737      .   S
    Zr21   O130      0.63737      .   S
    Zr24   O131      0.64229      .   S
    Zr61   O131      0.64229      .   S
    Zr21   O132      0.64188  1_545   S
    Zr55   O132      0.64188      .   S
    Zr6    O133      0.96952      .   S
    Zr55   O133      0.96952  1_565   S
    Zr6    O134      1.02713      .   S
    Zr61   O134      1.02713      .   S
    Zr6    O135      0.98432      .   S
    Zr67   O135      0.98432      .   S
    Zr63   O136      0.64186      .   S
    Zr25   O136      0.64186      .   S
    Zr63   O137      0.96995      .   S
    Zr4    O137      0.96995      .   S
    Zr26   O138      0.63740      .   S
    Zr67   O138      0.63740      .   S
    Zr25   O139      0.63741      .   S
    Zr62   O139      0.63741      .   S
    Zr53   O140      0.64197  1_545   S
    Zr20   O140      0.64197      .   S
    Zr53   O141      1.02886  1_545   S
    Zr4    O141      1.02886      .   S
    Zr20   O142      0.64227      .   S
    Zr52   O142      0.64227      .   S
    Zr4    O143      1.03141      .   S
    Zr52   O143      1.03141      .   S
    Zr4    O144      0.98486  1_565   S
    Zr59   O144      0.98486      .   S
    Zr62   O145      0.98447      .   S
    Zr5    O145      0.98447      .   S
    Zr73   O146      1.03123      .   S
    Zr5    O146      1.03123      .   S
    Zr73   O147      0.64226      .   S
    Zr31   O147      0.64226      .   S
    Zr59   O148      0.63737      .   S
    Zr22   O148      0.63737  1_565   S
    Zr5    O149      1.02860      .   S
    Zr72   O149      1.02860      .   S
    Zr5    O150      0.96983      .   S
    Zr58   O150      0.96983      .   S
    Zr31   O151      0.64198      .   S
    Zr72   O151      0.64198      .   S
    Zr46   O152      0.63737      .   S
    Zr17   O152      0.63737      .   S
    Zr46   O153      0.98490      .   S
    Zr9    O153      0.98490      .   S
    Zr56   O154      1.02796      .   S
    Zr9    O154      1.02796      .   S
    Zr56   O155      0.64231      .   S
    Zr23   O155      0.64231      .   S
    Zr22   O156      0.64183      .   S
    Zr58   O156      0.64183      .   S
    Zr17   O157      0.64196  1_455   S
    Zr47   O157      0.64196      .   S
    Zr74   O158      0.96962      .   S
    Zr9    O158      0.96962      .   S
    Zr74   O159      0.64201      .   S
    Zr30   O159      0.64201      .   S
    Zr9    O160      1.03217      .   S
    Zr57   O160      1.03217      .   S
    Zr30   O161      0.63731      .   S
    Zr75   O161      0.63731      .   S
    Zr27   O162      0.64191      .   S
    Zr64   O162      0.64191      .   S
    Zr27   O163      0.64237      .   S
    Zr65   O163      0.64237      .   S
    Zr23   O164      0.64203      .   S
    Zr57   O164      0.64203      .   S
    Zr75   O165      0.98576      .   S
    Zr8    O165      0.98576      .   S
    Zr47   O166      0.97011  1_655   S
    Zr8    O166      0.97011      .   S
    Zr64   O167      1.03035      .   S
    Zr1    O167      1.03035      .   S
    Zr65   O168      1.03037      .   S
    Zr1    O168      1.03037      .   S
    Zr8    O169      1.03054      .   S
    Zr68   O169      1.03054      .   S
    Zr8    O170      1.02996      .   S
    Zr69   O170      1.02996      .   S
    Zr1    O171      0.97047      .   S
    Zr42   O171      0.97047      .   S
    Zr1    O172      0.98539      .   S
    Zr78   O172      0.98539      .   S
    Zr36   O173      0.64213      .   S
    Zr12   O173      0.64213      .   S
    Zr36   O174      1.03185      .   S
    Zr0    O174      1.03185      .   S
    Zr68   O175      0.64231      .   S
    Zr28   O175      0.64231      .   S
    Zr69   O176      0.64197      .   S
    Zr28   O176      0.64197      .   S
    Zr78   O177      0.63734      .   S
    Zr33   O177      0.63734      .   S
    Zr33   O178      0.64194      .   S
    Zr79   O178      0.64194      .   S
    Zr0    O179      0.96996      .   S
    Zr79   O179      0.96996      .   S
    N180   O181      2.85163      .   S
    Zr25   O181      3.45011  1_565   S
    N180   O182      2.84034      .   S
    Zr32   O182      3.43105  1_565   S
    N180   O183      2.84305      .   S
    Zr24   O183      3.43485  1_655   S
    N180   O184      2.84668      .   S
    Zr33   O184      3.44357  1_556   S
    N180   O185      2.83742      .   S
    Zr28   O185      3.42756  1_556   S
    N180   O186      2.84826      .   S
    Zr29   O186      3.44664  1_655   S
    N187   O188      2.84695      .   S
    Zr13   O188      3.44391  1_554   S
    N187   O189      2.84874      .   S
    Zr21   O189      3.44705  1_545   S
    N187   O190      2.83845      .   S
    Zr20   O190      3.42943      .   S
    N187   O191      2.85076      .   S
    Zr17   O191      3.44905  1_455   S
    N187   O192      2.84133      .   S
    Zr16   O192      3.43199      .   S
    N187   O193      2.84116      .   S
    Zr12   O193      3.43250      .   S
    N194   O195      2.84067  1_554   S
    Zr23   O195      3.43185      .   S
    N194   O196      2.83755  1_545   S
    Zr19   O196      3.42801      .   S
    N194   O197      2.85095  1_455   S
    Zr14   O197      3.44948      .   S
    N194   O198      2.84928  1_545   S
    Zr18   O198      3.44815      .   S
    N194   O199      2.84745  1_554   S
    Zr22   O199      3.44503  1_565   S
    N194   O200      2.84080  1_455   S
    Zr15   O200      3.43133      .   S
    N201   O202      2.84727      .   S
    Zr30   O202      3.44481      .   S
    N201   O203      2.84225      .   S
    Zr35   O203      3.43370      .   S
    N201   O204      2.84888      .   S
    Zr26   O204      3.44759      .   S
    N201   O205      2.83529      .   S
    Zr27   O205      3.43049      .   S
    N201   O206      2.85219      .   S
    Zr34   O206      3.45115      .   S
    N201   O207      2.83939      .   S
    Zr31   O207      3.42966      .   S
