# CIF file generated by openbabel 2.4.90, see http://openbabel.sf.net
data_I
_chemical_name_common ''
_cell_length_a 19.518
_cell_length_b 19.551
_cell_length_c 19.542
_cell_angle_alpha 72.051
_cell_angle_beta 71.978
_cell_angle_gamma 71.943
_space_group_name_H-M_alt 'P 1'
_space_group_name_Hall 'P 1'
loop_
    _symmetry_equiv_pos_as_xyz
    x,y,z
loop_
    _atom_site_label
    _atom_site_type_symbol
    _atom_site_fract_x
    _atom_site_fract_y
    _atom_site_fract_z
    _atom_site_occupancy
    N0      N    0.18433   0.18351   0.18504   1.000
    N1      N    0.68478   0.68328   0.68491   1.000
    N2      N    0.00829   0.00857   0.00918   1.000
    N3      N    0.50859   0.50845   0.50905   1.000
    Zr4     Zr   0.92145   0.59619   0.27275   1.000
    O5      O    0.96907   0.72971   0.18748   1.000
    O6      O    0.76505   0.58598   0.32926   1.000
    O7      O    0.00651   0.46266   0.22483   1.000
    O8      O    0.86500   0.60612   0.42886   1.000
    Zr9     Zr   0.42151   0.77312   0.09675   1.000
    O10     O    0.50672   0.72454   0.96355   1.000
    O11     O    0.36497   0.92864   0.10712   1.000
    O12     O    0.46921   0.68750   0.23021   1.000
    O13     O    0.26491   0.82935   0.08660   1.000
    Zr14    Zr   0.59595   0.27321   0.92132   1.000
    O15     O    0.72926   0.18760   0.96936   1.000
    O16     O    0.58598   0.32926   0.76491   1.000
    O17     O    0.46286   0.22465   0.00660   1.000
    O18     O    0.60650   0.42869   0.86499   1.000
    Zr19    Zr   0.09697   0.41880   0.77296   1.000
    O20     O    0.08648   0.26326   0.82923   1.000
    O21     O    0.10692   0.36273   0.92920   1.000
    O22     O    0.23006   0.46736   0.68763   1.000
    O23     O    0.96372   0.50433   0.72484   1.000
    Zr24    Zr   0.77167   0.09562   0.42143   1.000
    O25     O    0.82812   0.08571   0.26528   1.000
    O26     O    0.68652   0.22921   0.46935   1.000
    O27     O    0.92797   0.10589   0.36491   1.000
    O28     O    0.72403   0.96211   0.50666   1.000
    Zr29    Zr   0.27166   0.91900   0.59721   1.000
    O30     O    0.32812   0.76342   0.58687   1.000
    O31     O    0.22385   0.00458   0.46382   1.000
    O32     O    0.18643   0.96749   0.73048   1.000
    O33     O    0.42819   0.86267   0.60741   1.000
loop_
    _geom_bond_atom_site_label_1
    _geom_bond_atom_site_label_2
    _geom_bond_distance
    _geom_bond_site_symmetry_2
    _ccdc_geom_bond_type
    Zr4    O5        2.88444      .   S
    N2     O5        5.62849  1_445   S
    Zr4    O6        2.95524      .   S
    N3     O6        5.49887      .   S
    Zr4    O7        2.88218  1_655   S
    N0     O7        5.62496      .   S
    Zr4    O8        2.95137      .   S
    N1     O8        5.49168      .   S
    Zr9    O10       2.88269  1_554   S
    N1     O10       5.62476      .   S
    Zr9    O11       2.94368      .   S
    N0     O11       5.48107  1_545   S
    Zr9    O12       2.88377      .   S
    N3     O12       5.63074      .   S
    Zr9    O13       2.95762      .   S
    N2     O13       5.49512  1_545   S
    Zr14   O15       2.88034      .   S
    N2     O15       5.62509  1_454   S
    Zr14   O16       2.95851      .   S
    N3     O16       5.49104      .   S
    Zr14   O17       2.88124  1_556   S
    N0     O17       5.62258      .   S
    Zr14   O18       2.94624      .   S
    N1     O18       5.48507      .   S
    Zr19   O20       2.94689      .   S
    N2     O20       5.48522  1_554   S
    Zr19   O21       2.95528      .   S
    N0     O21       5.49096  1_554   S
    Zr19   O22       2.88136      .   S
    N3     O22       5.62300      .   S
    Zr19   O23       2.87967  1_455   S
    N1     O23       5.62402      .   S
    Zr24   O25       2.95212      .   S
    N2     O25       5.49200  1_455   S
    Zr24   O26       2.88330      .   S
    N3     O26       5.62656      .   S
    Zr24   O27       2.95371      .   S
    N0     O27       5.49825  1_455   S
    Zr24   O28       2.88434  1_545   S
    N1     O28       5.62774      .   S
    Zr29   O30       2.94461      .   S
    N3     O30       5.48114      .   S
    Zr29   O31       2.88348  1_565   S
    N0     O31       5.62967      .   S
    Zr29   O32       2.88291      .   S
    N2     O32       5.62549  1_544   S
    Zr29   O33       2.95687      .   S
    N1     O33       5.49586      .   S
