# CIF file generated by openbabel 2.4.90, see http://openbabel.sf.net
data_I
_chemical_name_common ''
_cell_length_a 10.3735
_cell_length_b 13.1705
_cell_length_c 19.994
_cell_angle_alpha 90.022
_cell_angle_beta 90.002
_cell_angle_gamma 90.307
_space_group_name_H-M_alt 'P 1'
_space_group_name_Hall 'P 1'
loop_
    _symmetry_equiv_pos_as_xyz
    x,y,z
loop_
    _atom_site_label
    _atom_site_type_symbol
    _atom_site_fract_x
    _atom_site_fract_y
    _atom_site_fract_z
    _atom_site_occupancy
    Lv0     Lv   0.25235   0.50024   0.26378   1.000
    Lv1     Lv   0.69991   0.39711   0.07584   1.000
    Lv2     Lv   0.30237   0.89546   0.42464   1.000
    Lv3     Lv   0.74588   0.00008   0.23599   1.000
    Lv4     Lv   0.79992   0.60164   0.57518   1.000
    Lv5     Lv   0.24797   0.49918   0.76362   1.000
    Lv6     Lv   0.75430   0.00027   0.73590   1.000
    Lv7     Lv   0.19760   0.10416   0.92475   1.000
