# CIF file generated by openbabel 2.4.90, see http://openbabel.sf.net
data_I
_chemical_name_common ''
_cell_length_a 10.3735
_cell_length_b 13.1705
_cell_length_c 19.994
_cell_angle_alpha 90.022
_cell_angle_beta 90.002
_cell_angle_gamma 90.307
_space_group_name_H-M_alt 'P 1'
_space_group_name_Hall 'P 1'
loop_
    _symmetry_equiv_pos_as_xyz
    x,y,z
loop_
    _atom_site_label
    _atom_site_type_symbol
    _atom_site_fract_x
    _atom_site_fract_y
    _atom_site_fract_z
    _atom_site_occupancy
    C0      C    0.93520   0.11607   0.98607   1.000
    C1      C    0.63333   0.18233   0.98599   1.000
    C2      C    0.56477   0.88394   0.48606   1.000
    C3      C    0.86666   0.81768   0.48597   1.000
    C4      C    0.06200   0.61364   0.51404   1.000
    C5      C    0.36641   0.68015   0.51386   1.000
    C6      C    0.43800   0.38636   0.01402   1.000
    C7      C    0.13356   0.31988   0.01384   1.000
    C8      C    0.72500   0.46204   0.00784   1.000
    C9      C    0.62632   0.44025   0.12159   1.000
    C10     C    0.79845   0.43840   0.12594   1.000
    C11     C    0.70791   0.32257   0.13127   1.000
    C12     C    0.95775   0.97362   0.79908   1.000
    C13     C    0.56864   0.08298   0.79231   1.000
    C14     C    0.55073   0.02643   0.67267   1.000
    C15     C    0.94030   0.91819   0.67945   1.000
    C16     C    0.77495   0.53799   0.50662   1.000
    C17     C    0.87333   0.55757   0.62061   1.000
    C18     C    0.70120   0.55951   0.62485   1.000
    C19     C    0.79190   0.67514   0.63123   1.000
    C20     C    0.54254   0.02673   0.29918   1.000
    C21     C    0.93163   0.91770   0.29246   1.000
    C22     C    0.94957   0.97429   0.17286   1.000
    C23     C    0.55992   0.08222   0.17959   1.000
    C24     C    0.27719   0.95905   0.49311   1.000
    C25     C    0.37660   0.93962   0.37941   1.000
    C26     C    0.20448   0.93726   0.37473   1.000
    C27     C    0.29413   0.82186   0.36857   1.000
    C28     C    0.04259   0.47158   0.70193   1.000
    C29     C    0.43323   0.58097   0.70545   1.000
    C30     C    0.45358   0.52613   0.82531   1.000
    C31     C    0.06248   0.41778   0.82178   1.000
    C32     C    0.22277   0.04094   0.99333   1.000
    C33     C    0.12339   0.05973   0.87959   1.000
    C34     C    0.29551   0.06212   0.87492   1.000
    C35     C    0.20580   0.17745   0.86854   1.000
    C36     C    0.45779   0.52775   0.20214   1.000
    C37     C    0.06706   0.41856   0.20553   1.000
    C38     C    0.04671   0.47333   0.32543   1.000
    C39     C    0.43789   0.58149   0.32204   1.000
    C40     C    0.84310   0.33116   0.01235   1.000
    C41     C    0.71884   0.38615   0.03126   1.000
    C42     C    0.71291   0.39775   0.10753   1.000
    C43     C    0.77482   0.06687   0.87372   1.000
    C44     C    0.76401   0.03146   0.80274   1.000
    C45     C    0.86904   0.98491   0.77105   1.000
    C46     C    0.64917   0.04659   0.76710   1.000
    C47     C    0.73336   0.93360   0.59816   1.000
    C48     C    0.74445   0.96892   0.66915   1.000
    C49     C    0.63942   0.01547   0.70080   1.000
    C50     C    0.85946   0.95412   0.70468   1.000
    C51     C    0.65689   0.66875   0.51210   1.000
    C52     C    0.78110   0.61345   0.53069   1.000
    C53     C    0.78685   0.60042   0.60684   1.000
    C54     C    0.72517   0.93322   0.37374   1.000
    C55     C    0.73605   0.96877   0.30281   1.000
    C56     C    0.63111   0.01518   0.27107   1.000
    C57     C    0.85102   0.95392   0.26722   1.000
    C58     C    0.76660   0.06633   0.09814   1.000
    C59     C    0.75549   0.03091   0.16909   1.000
    C60     C    0.86078   0.98505   0.20094   1.000
    C61     C    0.64065   0.04600   0.20472   1.000
    C62     C    0.15802   0.82783   0.48742   1.000
    C63     C    0.28298   0.88360   0.46907   1.000
    C64     C    0.28958   0.89658   0.39294   1.000
    C65     C    0.22486   0.56464   0.62583   1.000
    C66     C    0.23683   0.52955   0.69675   1.000
    C67     C    0.13209   0.48337   0.72934   1.000
    C68     C    0.35289   0.54498   0.73146   1.000
    C69     C    0.27068   0.43507   0.90169   1.000
    C70     C    0.25900   0.46913   0.83053   1.000
    C71     C    0.36400   0.51485   0.79785   1.000
    C72     C    0.14302   0.45351   0.79579   1.000
    C73     C    0.34195   0.17212   0.98743   1.000
    C74     C    0.21698   0.11627   0.96915   1.000
    C75     C    0.21039   0.10287   0.89305   1.000
    C76     C    0.27527   0.43518   0.12588   1.000
    C77     C    0.26346   0.46997   0.19689   1.000
    C78     C    0.36827   0.51600   0.22954   1.000
    C79     C    0.14740   0.45450   0.23158   1.000
    C80     C    0.22949   0.56467   0.40179   1.000
    C81     C    0.24129   0.53032   0.33069   1.000
    C82     C    0.13629   0.48460   0.29799   1.000
    C83     C    0.35733   0.54582   0.29601   1.000
    C84     C    0.82864   0.24458   0.98344   1.000
    C85     C    0.60991   0.33263   0.00546   1.000
    C86     C    0.94920   0.37192   0.02691   1.000
    C87     C    0.88280   0.04933   0.90312   1.000
    C88     C    0.67824   0.11128   0.89898   1.000
    C89     C    0.62378   0.94654   0.56983   1.000
    C90     C    0.83234   0.89298   0.57205   1.000
    C91     C    0.67140   0.75546   0.48342   1.000
    C92     C    0.89013   0.66737   0.50541   1.000
    C93     C    0.55078   0.62802   0.52664   1.000
    C94     C    0.61715   0.95067   0.40314   1.000
    C95     C    0.82173   0.88877   0.39898   1.000
    C96     C    0.87620   0.05344   0.06981   1.000
    C97     C    0.66765   0.10703   0.07207   1.000
    C98     C    0.17151   0.74182   0.51688   1.000
    C99     C    0.39162   0.83026   0.49466   1.000
    C100    C    0.05227   0.86752   0.47194   1.000
    C101    C    0.11624   0.54716   0.59683   1.000
    C102    C    0.32178   0.60901   0.60032   1.000
    C103    C    0.38048   0.44868   0.92985   1.000
    C104    C    0.17144   0.39468   0.92812   1.000
    C105    C    0.32845   0.25819   0.01685   1.000
    C106    C    0.10834   0.16974   0.99464   1.000
    C107    C    0.44770   0.13242   0.97195   1.000
    C108    C    0.38382   0.45280   0.09686   1.000
    C109    C    0.17827   0.39096   0.10033   1.000
    C110    C    0.11966   0.55119   0.42993   1.000
    C111    C    0.32866   0.60525   0.42818   1.000
    O112    O    0.52395   0.35950   0.00974   1.000
    O113    O    0.66438   0.35939   0.01836   1.000
    O114    O    0.72192   0.42409   0.01955   1.000
    O115    O    0.89615   0.35154   0.01963   1.000
    O116    O    0.78097   0.35865   0.02180   1.000
    O117    O    0.83587   0.28787   0.99789   1.000
    O118    O    0.04138   0.34590   0.02037   1.000
    O119    O    0.15591   0.35542   0.05708   1.000
    O120    O    0.15250   0.35728   0.97098   1.000
    O121    O    0.38322   0.32228   0.01544   1.000
    O122    O    0.41091   0.41958   0.05544   1.000
    O123    O    0.40924   0.41752   0.97193   1.000
    O124    O    0.33520   0.21516   0.00214   1.000
    O125    O    0.71588   0.39195   0.06939   1.000
    O126    O    0.82140   0.05989   0.08398   1.000
    O127    O    0.90570   0.08476   0.02794   1.000
    O128    O    0.71712   0.08668   0.08511   1.000
    O129    O    0.65049   0.14468   0.02903   1.000
    O130    O    0.32954   0.44399   0.11137   1.000
    O131    O    0.76104   0.04862   0.13362   1.000
    O132    O    0.22677   0.41307   0.11311   1.000
    O133    O    0.66961   0.41900   0.11456   1.000
    O134    O    0.75568   0.41808   0.11673   1.000
    O135    O    0.71041   0.36016   0.11940   1.000
    O136    O    0.26937   0.45258   0.16138   1.000
    O137    O    0.80814   0.00798   0.18502   1.000
    O138    O    0.69807   0.03845   0.18691   1.000
    O139    O    0.90518   0.97967   0.18690   1.000
    O140    O    0.60028   0.06411   0.19216   1.000
    O141    O    0.31587   0.49299   0.21321   1.000
    O142    O    0.20543   0.46224   0.21423   1.000
    O143    O    0.85590   0.96949   0.23408   1.000
    O144    O    0.41303   0.52188   0.21584   1.000
    O145    O    0.63588   0.03059   0.23790   1.000
    O146    O    0.10723   0.43653   0.21855   1.000
    O147    O    0.36280   0.53091   0.26277   1.000
    O148    O    0.14185   0.46955   0.26479   1.000
    O149    O    0.89133   0.93581   0.27984   1.000
    O150    O    0.79354   0.96135   0.28502   1.000
    O151    O    0.58682   0.02095   0.28513   1.000
    O152    O    0.68358   0.99197   0.28694   1.000
    O153    O    0.39761   0.56366   0.30902   1.000
    O154    O    0.29931   0.53807   0.31335   1.000
    O155    O    0.09150   0.47897   0.31171   1.000
    O156    O    0.18879   0.50746   0.31434   1.000
    O157    O    0.73061   0.95100   0.33828   1.000
    O158    O    0.23539   0.54749   0.36624   1.000
    O159    O    0.29185   0.85922   0.38076   1.000
    O160    O    0.77345   0.91099   0.38636   1.000
    O161    O    0.67116   0.94195   0.38844   1.000
    O162    O    0.24703   0.91692   0.38384   1.000
    O163    O    0.33309   0.91810   0.38618   1.000
    O164    O    0.28628   0.89009   0.43101   1.000
    O165    O    0.84419   0.85322   0.44248   1.000
    O166    O    0.27907   0.58496   0.41498   1.000
    O167    O    0.17458   0.55793   0.41586   1.000
    O168    O    0.59096   0.91731   0.44460   1.000
    O169    O    0.34753   0.64270   0.47102   1.000
    O170    O    0.09083   0.58242   0.47198   1.000
    O171    O    0.22050   0.85571   0.47825   1.000
    O172    O    0.28009   0.92132   0.48109   1.000
    O173    O    0.33730   0.85693   0.48187   1.000
    O174    O    0.95946   0.84260   0.47896   1.000
    O175    O    0.10515   0.84767   0.47968   1.000
    O176    O    0.61809   0.81970   0.48474   1.000
    O177    O    0.66415   0.71210   0.49776   1.000
    O178    O    0.84950   0.85533   0.52901   1.000
    O179    O    0.47819   0.85710   0.49036   1.000
    O180    O    0.59427   0.91524   0.52794   1.000
    O181    O    0.16477   0.78483   0.50215   1.000
    O182    O    0.97607   0.64051   0.50972   1.000
    O183    O    0.83561   0.64041   0.51805   1.000
    O184    O    0.77802   0.57572   0.51866   1.000
    O185    O    0.60384   0.64838   0.51937   1.000
    O186    O    0.71899   0.64110   0.52139   1.000
    O187    O    0.45859   0.65408   0.52025   1.000
    O188    O    0.34410   0.64458   0.55709   1.000
    O189    O    0.11676   0.67773   0.51546   1.000
    O190    O    0.08912   0.58040   0.55544   1.000
    O191    O    0.78397   0.60694   0.56876   1.000
    O192    O    0.67857   0.94007   0.58399   1.000
    O193    O    0.78285   0.91329   0.58511   1.000
    O194    O    0.17055   0.55590   0.61133   1.000
    O195    O    0.73891   0.95126   0.63365   1.000
    O196    O    0.27332   0.58683   0.61308   1.000
    O197    O    0.83009   0.57900   0.61372   1.000
    O198    O    0.74403   0.57997   0.61584   1.000
    O199    O    0.78938   0.63778   0.61904   1.000
    O200    O    0.23084   0.54709   0.66129   1.000
    O201    O    0.69193   0.99220   0.68497   1.000
    O202    O    0.80196   0.96152   0.68691   1.000
    O203    O    0.59507   0.02095   0.68673   1.000
    O204    O    0.89988   0.93616   0.69207   1.000
    O205    O    0.18446   0.50646   0.71305   1.000
    O206    O    0.29486   0.53726   0.71411   1.000
    O207    O    0.64429   0.03103   0.73395   1.000
    O208    O    0.08734   0.47748   0.71564   1.000
    O209    O    0.86425   0.96952   0.73787   1.000
    O210    O    0.39306   0.56298   0.71845   1.000
    O211    O    0.13756   0.46844   0.76257   1.000
    O212    O    0.35845   0.52991   0.76466   1.000
    O213    O    0.60890   0.06479   0.77970   1.000
    O214    O    0.70659   0.03902   0.78492   1.000
    O215    O    0.91340   0.97927   0.78507   1.000
    O216    O    0.81652   0.00819   0.78690   1.000
    O217    O    0.10275   0.43564   0.80879   1.000
    O218    O    0.20101   0.46132   0.81316   1.000
    O219    O    0.40879   0.52049   0.81158   1.000
    O220    O    0.31150   0.49199   0.81419   1.000
    O221    O    0.76942   0.04916   0.83823   1.000
    O222    O    0.26484   0.45210   0.86611   1.000
    O223    O    0.20809   0.14016   0.88080   1.000
    O224    O    0.72653   0.08907   0.88635   1.000
    O225    O    0.82881   0.05810   0.88842   1.000
    O226    O    0.25295   0.08249   0.88398   1.000
    O227    O    0.16689   0.08130   0.88632   1.000
    O228    O    0.21369   0.10957   0.93110   1.000
    O229    O    0.65578   0.14680   0.94248   1.000
    O230    O    0.22106   0.41488   0.91490   1.000
    O231    O    0.32558   0.44187   0.91577   1.000
    O232    O    0.90900   0.08270   0.94460   1.000
    O233    O    0.27946   0.14420   0.97829   1.000
    O234    O    0.21988   0.07861   0.98124   1.000
    O235    O    0.16266   0.14301   0.98190   1.000
    O236    O    0.54051   0.15737   0.97897   1.000
    O237    O    0.39482   0.15227   0.97969   1.000
    O238    O    0.88192   0.18033   0.98475   1.000
    O239    O    0.02177   0.14290   0.99036   1.000
    O240    O    0.73098   0.21345   0.98471   1.000
    O241    O    0.62162   0.25748   0.99572   1.000
    O242    O    0.76903   0.78657   0.48470   1.000
    O243    O    0.87839   0.74253   0.49569   1.000
    O244    O    0.26896   0.71099   0.51537   1.000
    O245    O    0.37901   0.75521   0.50426   1.000
    O246    O    0.23100   0.28903   0.01534   1.000
    O247    O    0.12095   0.24481   0.00424   1.000
loop_
    _geom_bond_atom_site_label_1
    _geom_bond_atom_site_label_2
    _geom_bond_distance
    _geom_bond_site_symmetry_2
    _ccdc_geom_bond_type
    C85    O112      0.96488      .   S
    C6     O112      0.96488      .   S
    C85    O113      0.71255      .   S
    C41    O113      0.71255      .   S
    C8     O114      0.55275      .   S
    C41    O114      0.55275      .   S
    C40    O115      0.62806      .   S
    C86    O115      0.62806      .   S
    C40    O116      0.76466      .   S
    C41    O116      0.76466      .   S
    C40    O117      0.64313  1_554   S
    C84    O117      0.64313      .   S
    C7     O118      1.02587      .   S
    C86    O118      1.02587  1_655   S
    C7     O119      1.00950      .   S
    C109   O119      1.00950      .   S
    C7     O120      1.00740  1_554   S
    C104   O120      1.00740      .   S
    C6     O121      1.01535      .   S
    C105   O121      1.01535      .   S
    C6     O122      0.97844      .   S
    C108   O122      0.97844      .   S
    C6     O123      0.98335  1_554   S
    C103   O123      0.98335      .   S
    C105   O124      0.64262      .   S
    C73    O124      0.64262  1_556   S
    C41    O125      0.76685      .   S
    C42    O125      0.76685      .   S
    C96    O126      0.64117      .   S
    C58    O126      0.64117      .   S
    C96    O127      0.98156      .   S
    C0     O127      0.98156  1_556   S
    C97    O128      0.63615      .   S
    C58    O128      0.63615      .   S
    C97    O129      1.00968      .   S
    C1     O129      1.00968  1_556   S
    C108   O130      0.64336      .   S
    C76    O130      0.64336      .   S
    C58    O131      0.74884      .   S
    C59    O131      0.74884      .   S
    C109   O132      0.63370      .   S
    C76    O132      0.63370      .   S
    C42    O133      0.54875      .   S
    C9     O133      0.54875      .   S
    C42    O134      0.54872      .   S
    C10    O134      0.54872      .   S
    C42    O135      0.54959      .   S
    C11    O135      0.54959      .   S
    C76    O136      0.74841      .   S
    C77    O136      0.74841      .   S
    C59    O137      0.70192      .   S
    C60    O137      0.70192  1_565   S
    C59    O138      0.70157      .   S
    C61    O138      0.70157      .   S
    C22    O139      0.54433      .   S
    C60    O139      0.54433      .   S
    C23    O140      0.54447      .   S
    C61    O140      0.54447      .   S
    C77    O141      0.70146      .   S
    C78    O141      0.70146      .   S
    C77    O142      0.70174      .   S
    C79    O142      0.70174      .   S
    C60    O143      0.69543      .   S
    C57    O143      0.69543      .   S
    C36    O144      0.54424      .   S
    C78    O144      0.54424      .   S
    C61    O145      0.69542      .   S
    C56    O145      0.69542      .   S
    C37    O146      0.54442      .   S
    C79    O146      0.54442      .   S
    C78    O147      0.69525      .   S
    C83    O147      0.69525      .   S
    C79    O148      0.69527      .   S
    C82    O148      0.69527      .   S
    C57    O149      0.54449      .   S
    C21    O149      0.54449      .   S
    C57    O150      0.70165      .   S
    C55    O150      0.70165      .   S
    C56    O151      0.54421      .   S
    C20    O151      0.54421      .   S
    C56    O152      0.70156  1_545   S
    C55    O152      0.70156      .   S
    C83    O153      0.54440      .   S
    C39    O153      0.54440      .   S
    C83    O154      0.70163      .   S
    C81    O154      0.70163      .   S
    C82    O155      0.54437      .   S
    C38    O155      0.54437      .   S
    C82    O156      0.70159      .   S
    C81    O156      0.70159      .   S
    C55    O157      0.74890      .   S
    C54    O157      0.74890      .   S
    C81    O158      0.74843      .   S
    C80    O158      0.74843      .   S
    C27    O159      0.54958      .   S
    C64    O159      0.54958      .   S
    C54    O160      0.63386      .   S
    C95    O160      0.63386      .   S
    C54    O161      0.64355      .   S
    C94    O161      0.64355      .   S
    C26    O162      0.54868      .   S
    C64    O162      0.54868      .   S
    C25    O163      0.54868      .   S
    C64    O163      0.54868      .   S
    C64    O164      0.76662      .   S
    C63    O164      0.76662      .   S
    C95    O165      1.01552      .   S
    C3     O165      1.01552      .   S
    C80    O166      0.63568      .   S
    C111   O166      0.63568      .   S
    C80    O167      0.64106      .   S
    C110   O167      0.64106      .   S
    C94    O168      0.97632      .   S
    C2     O168      0.97632      .   S
    C111   O169      1.00690      .   S
    C5     O169      1.00690      .   S
    C110   O170      0.98322      .   S
    C4     O170      0.98322      .   S
    C63    O171      0.76558      .   S
    C62    O171      0.76558      .   S
    C63    O172      0.55280      .   S
    C24    O172      0.55280      .   S
    C63    O173      0.71307      .   S
    C99    O173      0.71307      .   S
    C100   O174      1.02515  1_455   S
    C3     O174      1.02515      .   S
    C100   O175      0.62826      .   S
    C62    O175      0.62826      .   S
    C91    O176      1.01367      .   S
    C2     O176      1.01367      .   S
    C91    O177      0.64307      .   S
    C51    O177      0.64307      .   S
    C3     O178      1.00934      .   S
    C90    O178      1.00934      .   S
    C2     O179      0.96721      .   S
    C99    O179      0.96721      .   S
    C2     O180      0.98138      .   S
    C89    O180      0.98138      .   S
    C62    O181      0.64259      .   S
    C98    O181      0.64259      .   S
    C92    O182      0.96475      .   S
    C4     O182      0.96475  1_455   S
    C92    O183      0.71251      .   S
    C52    O183      0.71251      .   S
    C16    O184      0.55280      .   S
    C52    O184      0.55280      .   S
    C51    O185      0.62803      .   S
    C93    O185      0.62803      .   S
    C51    O186      0.76467      .   S
    C52    O186      0.76467      .   S
    C5     O187      1.02576      .   S
    C93    O187      1.02576      .   S
    C5     O188      1.00963      .   S
    C102   O188      1.00963      .   S
    C4     O189      1.01526      .   S
    C98    O189      1.01526      .   S
    C4     O190      0.97855      .   S
    C101   O190      0.97855      .   S
    C52    O191      0.76676      .   S
    C53    O191      0.76676      .   S
    C89    O192      0.64117      .   S
    C47    O192      0.64117      .   S
    C90    O193      0.63613      .   S
    C47    O193      0.63613      .   S
    C101   O194      0.64336      .   S
    C65    O194      0.64336      .   S
    C47    O195      0.74881      .   S
    C48    O195      0.74881      .   S
    C102   O196      0.63373      .   S
    C65    O196      0.63373      .   S
    C53    O197      0.54875      .   S
    C17    O197      0.54875      .   S
    C53    O198      0.54871      .   S
    C18    O198      0.54871      .   S
    C53    O199      0.54958      .   S
    C19    O199      0.54958      .   S
    C65    O200      0.74848      .   S
    C66    O200      0.74848      .   S
    C48    O201      0.70189      .   S
    C49    O201      0.70189  1_545   S
    C48    O202      0.70157      .   S
    C50    O202      0.70157      .   S
    C14    O203      0.54433      .   S
    C49    O203      0.54433      .   S
    C15    O204      0.54446      .   S
    C50    O204      0.54446      .   S
    C66    O205      0.70148      .   S
    C67    O205      0.70148      .   S
    C66    O206      0.70175      .   S
    C68    O206      0.70175      .   S
    C49    O207      0.69540      .   S
    C46    O207      0.69540      .   S
    C28    O208      0.54426      .   S
    C67    O208      0.54426      .   S
    C50    O209      0.69540      .   S
    C45    O209      0.69540      .   S
    C29    O210      0.54443      .   S
    C68    O210      0.54443      .   S
    C67    O211      0.69527      .   S
    C72    O211      0.69527      .   S
    C68    O212      0.69530      .   S
    C71    O212      0.69530      .   S
    C46    O213      0.54448      .   S
    C13    O213      0.54448      .   S
    C46    O214      0.70165      .   S
    C44    O214      0.70165      .   S
    C45    O215      0.54421      .   S
    C12    O215      0.54421      .   S
    C45    O216      0.70199  1_565   S
    C44    O216      0.70199      .   S
    C72    O217      0.54439      .   S
    C31    O217      0.54439      .   S
    C72    O218      0.70164      .   S
    C70    O218      0.70164      .   S
    C71    O219      0.54437      .   S
    C30    O219      0.54437      .   S
    C71    O220      0.70163      .   S
    C70    O220      0.70163      .   S
    C44    O221      0.74884      .   S
    C43    O221      0.74884      .   S
    C70    O222      0.74851      .   S
    C69    O222      0.74851      .   S
    C35    O223      0.54958      .   S
    C75    O223      0.54958      .   S
    C43    O224      0.63386      .   S
    C88    O224      0.63386      .   S
    C43    O225      0.64352      .   S
    C87    O225      0.64352      .   S
    C34    O226      0.54868      .   S
    C75    O226      0.54868      .   S
    C33    O227      0.54867      .   S
    C75    O227      0.54867      .   S
    C75    O228      0.76661      .   S
    C74    O228      0.76661      .   S
    C88    O229      1.01518      .   S
    C1     O229      1.01518      .   S
    C69    O230      0.63571      .   S
    C104   O230      0.63571      .   S
    C69    O231      0.64111      .   S
    C103   O231      0.64111      .   S
    C87    O232      0.97624      .   S
    C0     O232      0.97624      .   S
    C74    O233      0.76560      .   S
    C73    O233      0.76560      .   S
    C74    O234      0.55282      .   S
    C32    O234      0.55282      .   S
    C74    O235      0.71307      .   S
    C106   O235      0.71307      .   S
    C107   O236      1.02529      .   S
    C1     O236      1.02529      .   S
    C107   O237      0.62826      .   S
    C73    O237      0.62826      .   S
    C84    O238      1.01361      .   S
    C0     O238      1.01361      .   S
    C0     O239      0.96712  1_655   S
    C106   O239      0.96712      .   S
    C84    O240      1.09114      .   S
    C1     O240      1.09114      .   S
    C85    O241      1.01661  1_554   S
    C1     O241      1.01661      .   S
    C91    O242      1.09073      .   S
    C3     O242      1.09073      .   S
    C92    O243      1.01670      .   S
    C3     O243      1.01670      .   S
    C98    O244      1.09186      .   S
    C5     O244      1.09186      .   S
    C99    O245      1.01486      .   S
    C5     O245      1.01486      .   S
    C105   O246      1.09189      .   S
    C7     O246      1.09189      .   S
    C106   O247      1.01486  1_556   S
    C7     O247      1.01486      .   S
