# CIF file generated by openbabel 2.4.90, see http://openbabel.sf.net
data_I
_chemical_name_common ''
_cell_length_a 12.124
_cell_length_b 15.264
_cell_length_c 15.916
_cell_angle_alpha 89.962
_cell_angle_beta 89.998
_cell_angle_gamma 89.986
_space_group_name_H-M_alt 'P 1'
_space_group_name_Hall 'P 1'
loop_
    _symmetry_equiv_pos_as_xyz
    x,y,z
loop_
    _atom_site_label
    _atom_site_type_symbol
    _atom_site_fract_x
    _atom_site_fract_y
    _atom_site_fract_z
    _atom_site_occupancy
    H0      H    0.35509   0.37818   0.90040   1.000
    H1      H    0.28469   0.08561   0.78217   1.000
    H2      H    0.46824   0.32765   0.77644   1.000
    H3      H    0.18145   0.14472   0.90600   1.000
    H4      H    0.85510   0.12178   0.59968   1.000
    H5      H    0.78468   0.41442   0.71780   1.000
    H6      H    0.96828   0.17233   0.72360   1.000
    H7      H    0.68141   0.35529   0.59400   1.000
    H8      H    0.14492   0.87838   0.59953   1.000
    H9      H    0.21513   0.58563   0.71785   1.000
    H10     H    0.03172   0.82781   0.72350   1.000
    H11     H    0.31841   0.64479   0.59402   1.000
    H12     H    0.35502   0.37830   0.09950   1.000
    H13     H    0.28483   0.08563   0.21795   1.000
    H14     H    0.46824   0.32774   0.22348   1.000
    H15     H    0.18154   0.14477   0.09410   1.000
    H16     H    0.14486   0.87818   0.40034   1.000
    H17     H    0.21525   0.58553   0.28222   1.000
    H18     H    0.03172   0.82765   0.27641   1.000
    H19     H    0.31849   0.64465   0.40601   1.000
    H20     H    0.85507   0.12171   0.40053   1.000
    H21     H    0.78476   0.41441   0.28212   1.000
    H22     H    0.96826   0.17226   0.27655   1.000
    H23     H    0.68150   0.35527   0.40597   1.000
    C24     C    0.38439   0.20252   0.76905   1.000
    C25     C    0.44200   0.17206   0.69428   1.000
    C26     C    0.34469   0.31335   0.87259   1.000
    C27     C    0.30337   0.15024   0.80732   1.000
    C28     C    0.40556   0.28530   0.80383   1.000
    C29     C    0.24648   0.18278   0.87604   1.000
    C30     C    0.88441   0.29749   0.73096   1.000
    C31     C    0.94202   0.32795   0.80572   1.000
    C32     C    0.84470   0.18662   0.62747   1.000
    C33     C    0.80336   0.34978   0.69268   1.000
    C34     C    0.90558   0.21469   0.69620   1.000
    C35     C    0.74646   0.31722   0.62399   1.000
    C36     C    0.11549   0.70261   0.73094   1.000
    C37     C    0.05787   0.67211   0.80573   1.000
    C38     C    0.15527   0.81352   0.62737   1.000
    C39     C    0.19649   0.65030   0.69260   1.000
    C40     C    0.09437   0.78544   0.69613   1.000
    C41     C    0.25340   0.68287   0.62396   1.000
    C42     C    0.38447   0.20257   0.23097   1.000
    C43     C    0.44210   0.17209   0.30577   1.000
    C44     C    0.34469   0.31345   0.12736   1.000
    C45     C    0.30347   0.15028   0.19275   1.000
    C46     C    0.40558   0.28538   0.19612   1.000
    C47     C    0.24655   0.18283   0.12400   1.000
    C48     C    0.11556   0.70248   0.26906   1.000
    C49     C    0.05797   0.67203   0.19428   1.000
    C50     C    0.15526   0.81333   0.37256   1.000
    C51     C    0.19658   0.65018   0.30734   1.000
    C52     C    0.09439   0.78529   0.30381   1.000
    C53     C    0.25347   0.68272   0.37605   1.000
    C54     C    0.88444   0.29745   0.26907   1.000
    C55     C    0.94204   0.32792   0.19427   1.000
    C56     C    0.84470   0.18657   0.37268   1.000
    C57     C    0.80343   0.34975   0.30730   1.000
    C58     C    0.90559   0.21463   0.30391   1.000
    C59     C    0.74653   0.31720   0.37604   1.000
    N60     N    0.48728   0.09387   0.59052   1.000
    N61     N    0.54723   0.16790   0.58864   1.000
    N62     N    0.52031   0.21861   0.65324   1.000
    N63     N    0.42063   0.09462   0.65600   1.000
    N64     N    0.26580   0.26315   0.90818   1.000
    N65     N    0.98727   0.40615   0.90947   1.000
    N66     N    0.04725   0.33210   0.91137   1.000
    N67     N    0.02034   0.28139   0.84679   1.000
    N68     N    0.92064   0.40541   0.84360   1.000
    N69     N    0.76578   0.23682   0.59187   1.000
    N70     N    0.01261   0.59386   0.90953   1.000
    N71     N    0.95270   0.66794   0.91142   1.000
    N72     N    0.97962   0.71869   0.84680   1.000
    N73     N    0.07921   0.59462   0.84363   1.000
    N74     N    0.23413   0.76330   0.59180   1.000
    N75     N    0.48741   0.09384   0.40956   1.000
    N76     N    0.54726   0.16792   0.41146   1.000
    N77     N    0.52031   0.21867   0.34680   1.000
    N78     N    0.42082   0.09459   0.34366   1.000
    N79     N    0.26582   0.26324   0.09181   1.000
    N80     N    0.01273   0.59387   0.09051   1.000
    N81     N    0.95278   0.66793   0.08861   1.000
    N82     N    0.97968   0.71862   0.15321   1.000
    N83     N    0.07934   0.59458   0.15640   1.000
    N84     N    0.23416   0.76312   0.40816   1.000
    N85     N    0.98733   0.40613   0.09045   1.000
    N86     N    0.04719   0.33203   0.08856   1.000
    N87     N    0.02026   0.28131   0.15319   1.000
    N88     N    0.92075   0.40542   0.15636   1.000
    N89     N    0.76582   0.23679   0.40824   1.000
loop_
    _geom_bond_atom_site_label_1
    _geom_bond_atom_site_label_2
    _geom_bond_distance
    _geom_bond_site_symmetry_2
    _ccdc_geom_bond_type
    N86    N85       1.34415  1_455   S
    N86    N87       1.32783      .   S
    N81    N80       1.34414  1_655   S
    N81    N82       1.32794      .   S
    N85    N88       1.32372      .   S
    N80    N83       1.32375      .   S
    N79    C47       1.35009      .   S
    N79    C44       1.35004      .   S
    H15    C47       1.08900      .   S
    H12    C44       1.09161      .   S
    C47    C45       1.38552      .   S
    C44    C46       1.38767      .   S
    N87    C55       1.35398  1_455   S
    N82    C49       1.35391  1_655   S
    N88    C55       1.35241      .   S
    N83    C49       1.35240      .   S
    C45    H13       1.08874      .   S
    C45    C42       1.40447      .   S
    C55    C54       1.45631      .   S
    C49    C48       1.45639      .   S
    C46    H14       1.08871      .   S
    C46    C42       1.40361      .   S
    C42    C43       1.45640      .   S
    C48    C52       1.40356      .   S
    C48    C51       1.40442      .   S
    C54    C58       1.40360      .   S
    C54    C57       1.40445      .   S
    H18    C52       1.08868      .   S
    H22    C58       1.08869      .   S
    H21    C57       1.08868      .   S
    H17    C51       1.08873      .   S
    C52    C50       1.38782      .   S
    C58    C56       1.38776      .   S
    C43    N78       1.35235      .   S
    C43    N77       1.35353      .   S
    C57    C59       1.38535      .   S
    C51    C53       1.38539      .   S
    N78    N75       1.32369      .   S
    N77    N76       1.32846      .   S
    C50    H16       1.09158      .   S
    C50    N84       1.35004      .   S
    C56    H20       1.09161      .   S
    C56    N89       1.35008      .   S
    C59    H23       1.08913      .   S
    C59    N89       1.35014      .   S
    C53    H19       1.08909      .   S
    C53    N84       1.35011      .   S
    N75    N76       1.34407      .   S
    N61    N60       1.34410      .   S
    N61    N62       1.32797      .   S
    N60    N63       1.31879      .   S
    N74    C41       1.35012      .   S
    N74    C38       1.35002      .   S
    N69    C35       1.35021      .   S
    N69    C32       1.35007      .   S
    H7     C35       1.08938      .   S
    H11    C41       1.08912      .   S
    H8     C38       1.09166      .   S
    H4     C32       1.09163      .   S
    C41    C39       1.38424      .   S
    C35    C33       1.38531      .   S
    C38    C40       1.38777      .   S
    C32    C34       1.38776      .   S
    N62    C25       1.35378      .   S
    N63    C25       1.35523      .   S
    C39    H9        1.08923      .   S
    C39    C36       1.40510      .   S
    C33    H5        1.08873      .   S
    C33    C30       1.40449      .   S
    C25    C24       1.45629      .   S
    C40    H10       1.08865      .   S
    C40    C36       1.40358      .   S
    C34    H6        1.08872      .   S
    C34    C30       1.40362      .   S
    C36    C37       1.45631      .   S
    C30    C31       1.45632      .   S
    C24    C28       1.40359      .   S
    C24    C27       1.40445      .   S
    H2     C28       1.08867      .   S
    H1     C27       1.08873      .   S
    C28    C26       1.38779      .   S
    C31    N68       1.35248      .   S
    C31    N67       1.35396  1_655   S
    C37    N73       1.35238      .   S
    C37    N72       1.35393  1_455   S
    C27    C29       1.38530      .   S
    N68    N65       1.32365      .   S
    N73    N70       1.32369      .   S
    N67    N66       1.32790      .   S
    N72    N71       1.32791      .   S
    C26    H0        1.09161      .   S
    C26    N64       1.35003      .   S
    C29    H3        1.08913      .   S
    C29    N64       1.35010      .   S
    N65    N66       1.34412  1_655   S
    N70    N71       1.34413  1_455   S
