# CIF file generated by openbabel 2.4.90, see http://openbabel.sf.net
data_I
_chemical_name_common ''
_cell_length_a 12.124
_cell_length_b 15.264
_cell_length_c 15.916
_cell_angle_alpha 89.962
_cell_angle_beta 89.998
_cell_angle_gamma 89.986
_space_group_name_H-M_alt 'P 1'
_space_group_name_Hall 'P 1'
loop_
    _symmetry_equiv_pos_as_xyz
    x,y,z
loop_
    _atom_site_label
    _atom_site_type_symbol
    _atom_site_fract_x
    _atom_site_fract_y
    _atom_site_fract_z
    _atom_site_occupancy
    Zr0     Zr   0.33299   0.81505   0.49993   1.000
    Zr1     Zr   0.66696   0.18496   0.50008   1.000
    Zr2     Zr   0.16694   0.31503   0.99996   1.000
    Zr3     Zr   1.00000   0.50000   0.99999   1.000
    N4      N    0.12276   0.70546   0.72765   1.000
    O5      O    0.06453   0.62620   0.84121   1.000
    O6      O    0.20316   0.74732   0.63676   1.000
    N7      N    0.37715   0.20537   0.77231   1.000
    O8      O    0.49212   0.19090   0.65834   1.000
    O9      O    0.29676   0.24723   0.86319   1.000
    N10     N    0.87715   0.29463   0.72768   1.000
    O11     O    0.93539   0.37385   0.84121   1.000
    O12     O    0.99212   0.30910   0.84167   1.000
    O13     O    0.79676   0.25276   0.63683   1.000
    N14     N    0.12282   0.70534   0.27233   1.000
    O15     O    0.06459   0.62614   0.15879   1.000
    O16     O    0.20319   0.74722   0.36319   1.000
    N17     N    0.37721   0.20542   0.22769   1.000
    O18     O    0.49216   0.19093   0.34173   1.000
    O19     O    0.29680   0.24728   0.13679   1.000
    N20     N    0.87718   0.29459   0.27235   1.000
    O21     O    0.79679   0.25273   0.36325   1.000
    O22     O    0.93542   0.37383   0.15878   1.000
    O23     O    0.99212   0.30906   0.15830   1.000
loop_
    _geom_bond_atom_site_label_1
    _geom_bond_atom_site_label_2
    _geom_bond_distance
    _geom_bond_site_symmetry_2
    _ccdc_geom_bond_type
    N4     O5        2.28602      .   S
    Zr3    O5        3.27159  1_655   S
    N4     O6        1.85750      .   S
    Zr0    O6        2.87871      .   S
    N7     O8        2.29846      .   S
    Zr1    O8        3.29333      .   S
    N7     O9        1.85770      .   S
    Zr2    O9        2.87898      .   S
    N10    O11       2.28672      .   S
    Zr3    O11       3.27343      .   S
    N10    O12       2.29877      .   S
    Zr2    O12       3.29367  1_455   S
    N10    O13       1.85768      .   S
    Zr1    O13       2.87899      .   S
    N14    O15       2.28671      .   S
    Zr3    O15       3.27348  1_656   S
    N14    O16       1.85767      .   S
    Zr0    O16       2.87909      .   S
    N17    O18       2.29898      .   S
    Zr1    O18       3.29423      .   S
    N17    O19       1.85753      .   S
    Zr2    O19       2.87869  1_556   S
    N20    O21       1.85757      .   S
    Zr1    O21       2.87881      .   S
    N20    O22       2.28605      .   S
    Zr3    O22       3.27168  1_556   S
    N20    O23       2.29892      .   S
    Zr2    O23       3.29418  1_456   S
