# CIF file generated by openbabel 2.4.90, see http://openbabel.sf.net
data_I
_chemical_name_common ''
_cell_length_a 12.124
_cell_length_b 15.264
_cell_length_c 15.916
_cell_angle_alpha 89.962
_cell_angle_beta 89.998
_cell_angle_gamma 89.986
_space_group_name_H-M_alt 'P 1'
_space_group_name_Hall 'P 1'
loop_
    _symmetry_equiv_pos_as_xyz
    x,y,z
loop_
    _atom_site_label
    _atom_site_type_symbol
    _atom_site_fract_x
    _atom_site_fract_y
    _atom_site_fract_z
    _atom_site_occupancy
    C0      C    0.33299   0.81505   0.49993   1.000
    C1      C    0.66696   0.18496   0.50008   1.000
    C2      C    0.16694   0.31503   0.99996   1.000
    C3      C    0.83302   0.68496   0.30000   1.000
    C4      C    0.49999   0.99998   0.00000   1.000
    C5      C    1.00000   0.50000   0.99999   1.000
    C6      C    0.64498   0.62173   0.90051   1.000
    C7      C    0.71509   0.91442   0.78208   1.000
    C8      C    0.53180   0.67225   0.77650   1.000
    C9      C    0.81835   0.85530   0.90596   1.000
    C10     C    0.35509   0.37818   0.90040   1.000
    C11     C    0.28469   0.08561   0.78217   1.000
    C12     C    0.46824   0.32765   0.77644   1.000
    C13     C    0.18145   0.14472   0.90600   1.000
    C14     C    0.85510   0.12178   0.59968   1.000
    C15     C    0.78468   0.41442   0.71780   1.000
    C16     C    0.96828   0.17233   0.72360   1.000
    C17     C    0.68141   0.35529   0.59400   1.000
    C18     C    0.14492   0.87838   0.59953   1.000
    C19     C    0.21513   0.58563   0.71785   1.000
    C20     C    0.03172   0.82781   0.72350   1.000
    C21     C    0.31841   0.64479   0.59402   1.000
    C22     C    0.35502   0.37830   0.09950   1.000
    C23     C    0.28483   0.08563   0.21795   1.000
    C24     C    0.46824   0.32774   0.22348   1.000
    C25     C    0.18154   0.14477   0.09410   1.000
    C26     C    0.64490   0.62171   0.09960   1.000
    C27     C    0.71523   0.91432   0.21780   1.000
    C28     C    0.53173   0.67226   0.22361   1.000
    C29     C    0.81848   0.85519   0.09401   1.000
    C30     C    0.14486   0.87818   0.40034   1.000
    C31     C    0.21525   0.58553   0.28222   1.000
    C32     C    0.03172   0.82765   0.27641   1.000
    C33     C    0.31849   0.64465   0.40601   1.000
    C34     C    0.85507   0.12171   0.40053   1.000
    C35     C    0.78476   0.41441   0.28212   1.000
    C36     C    0.96826   0.17226   0.27655   1.000
    C37     C    0.68150   0.35527   0.40597   1.000
    C38     C    0.61551   0.79744   0.76900   1.000
    C39     C    0.55790   0.82791   0.69423   1.000
    C40     C    0.65530   0.68658   0.87265   1.000
    C41     C    0.69646   0.84976   0.80727   1.000
    C42     C    0.59442   0.71463   0.80387   1.000
    C43     C    0.75337   0.81722   0.87602   1.000
    C44     C    0.38439   0.20252   0.76905   1.000
    C45     C    0.44200   0.17206   0.69428   1.000
    C46     C    0.34469   0.31335   0.87259   1.000
    C47     C    0.30337   0.15024   0.80732   1.000
    C48     C    0.40556   0.28530   0.80383   1.000
    C49     C    0.24648   0.18278   0.87604   1.000
    C50     C    0.88441   0.29749   0.73096   1.000
    C51     C    0.94202   0.32795   0.80572   1.000
    C52     C    0.84470   0.18662   0.62747   1.000
    C53     C    0.80336   0.34978   0.69268   1.000
    C54     C    0.90558   0.21469   0.69620   1.000
    C55     C    0.74646   0.31722   0.62399   1.000
    C56     C    0.11549   0.70261   0.73094   1.000
    C57     C    0.05787   0.67211   0.80573   1.000
    C58     C    0.15527   0.81352   0.62737   1.000
    C59     C    0.19649   0.65030   0.69260   1.000
    C60     C    0.09437   0.78544   0.69613   1.000
    C61     C    0.25340   0.68287   0.62396   1.000
    C62     C    0.38447   0.20257   0.23097   1.000
    C63     C    0.44210   0.17209   0.30577   1.000
    C64     C    0.34469   0.31345   0.12736   1.000
    C65     C    0.30347   0.15028   0.19275   1.000
    C66     C    0.40558   0.28538   0.19612   1.000
    C67     C    0.24655   0.18283   0.12400   1.000
    C68     C    0.61555   0.79740   0.23090   1.000
    C69     C    0.55793   0.82789   0.30570   1.000
    C70     C    0.65528   0.68654   0.12740   1.000
    C71     C    0.69656   0.84968   0.19268   1.000
    C72     C    0.59440   0.71461   0.19620   1.000
    C73     C    0.75346   0.81713   0.12397   1.000
    C74     C    0.11556   0.70248   0.26906   1.000
    C75     C    0.05797   0.67203   0.19428   1.000
    C76     C    0.15526   0.81333   0.37256   1.000
    C77     C    0.19658   0.65018   0.30734   1.000
    C78     C    0.09439   0.78529   0.30381   1.000
    C79     C    0.25347   0.68272   0.37605   1.000
    C80     C    0.88444   0.29745   0.26907   1.000
    C81     C    0.94204   0.32792   0.19427   1.000
    C82     C    0.84470   0.18657   0.37268   1.000
    C83     C    0.80343   0.34975   0.30730   1.000
    C84     C    0.90559   0.21463   0.30391   1.000
    C85     C    0.74653   0.31720   0.37604   1.000
    C86     C    0.51259   0.90613   0.59042   1.000
    C87     C    0.45276   0.83204   0.58852   1.000
    C88     C    0.47970   0.78131   0.65315   1.000
    C89     C    0.57917   0.90540   0.65633   1.000
    C90     C    0.73412   0.73681   0.90822   1.000
    C91     C    0.48728   0.09387   0.59052   1.000
    C92     C    0.54723   0.16790   0.58864   1.000
    C93     C    0.52031   0.21861   0.65324   1.000
    C94     C    0.42063   0.09462   0.65600   1.000
    C95     C    0.26580   0.26315   0.90818   1.000
    C96     C    0.98727   0.40615   0.90947   1.000
    C97     C    0.04725   0.33210   0.91137   1.000
    C98     C    0.02034   0.28139   0.84679   1.000
    C99     C    0.92064   0.40541   0.84360   1.000
    C100    C    0.76578   0.23682   0.59187   1.000
    C101    C    0.01261   0.59386   0.90953   1.000
    C102    C    0.95270   0.66794   0.91142   1.000
    C103    C    0.97962   0.71869   0.84680   1.000
    C104    C    0.07921   0.59462   0.84363   1.000
    C105    C    0.23413   0.76330   0.59180   1.000
    C106    C    0.48741   0.09384   0.40956   1.000
    C107    C    0.54726   0.16792   0.41146   1.000
    C108    C    0.52031   0.21867   0.34680   1.000
    C109    C    0.42082   0.09459   0.34366   1.000
    C110    C    0.26582   0.26324   0.09181   1.000
    C111    C    0.51267   0.90612   0.40946   1.000
    C112    C    0.45267   0.83211   0.41134   1.000
    C113    C    0.47958   0.78138   0.34677   1.000
    C114    C    0.57934   0.90533   0.34360   1.000
    C115    C    0.73415   0.73674   0.09185   1.000
    C116    C    0.01273   0.59387   0.09051   1.000
    C117    C    0.95278   0.66793   0.08861   1.000
    C118    C    0.97968   0.71862   0.15321   1.000
    C119    C    0.07934   0.59458   0.15640   1.000
    C120    C    0.23416   0.76312   0.40816   1.000
    C121    C    0.98733   0.40613   0.09045   1.000
    C122    C    0.04719   0.33203   0.08856   1.000
    C123    C    0.02026   0.28131   0.15319   1.000
    C124    C    0.92075   0.40542   0.15636   1.000
    C125    C    0.76582   0.23679   0.40824   1.000
    C126    C    0.27553   0.96590   0.49988   1.000
    C127    C    0.72444   0.03411   0.50011   1.000
    C128    C    0.22438   0.46586   0.99990   1.000
    C129    C    0.77561   0.53412   0.00000   1.000
    O130    O    0.01726   0.36908   0.08951   1.000
    O131    O    0.03373   0.30667   0.12087   1.000
    O132    O    0.10707   0.32353   0.04426   1.000
    O133    O    0.98275   0.63090   0.08956   1.000
    O134    O    0.96623   0.69327   0.12091   1.000
    O135    O    0.95404   0.40577   0.12340   1.000
    O136    O    0.99366   0.45307   0.04522   1.000
    O137    O    0.04603   0.59423   0.12345   1.000
    O138    O    0.00636   0.54693   0.04525   1.000
    O139    O    0.25619   0.22304   0.10791   1.000
    O140    O    0.30525   0.28835   0.10959   1.000
    O141    O    0.21638   0.28914   0.04589   1.000
    O142    O    0.74381   0.77694   0.10791   1.000
    O143    O    0.69472   0.71164   0.10963   1.000
    O144    O    0.78597   0.83616   0.10899   1.000
    O145    O    0.21405   0.16380   0.10905   1.000
    O146    O    0.34985   0.34587   0.11343   1.000
    O147    O    0.65009   0.65413   0.11350   1.000
    O148    O    0.72501   0.83341   0.15832   1.000
    O149    O    0.27501   0.16656   0.15838   1.000
    O150    O    0.37513   0.29941   0.16174   1.000
    O151    O    0.62484   0.70057   0.16180   1.000
    O152    O    0.98115   0.30461   0.17373   1.000
    O153    O    0.01882   0.69533   0.17375   1.000
    O154    O    0.93140   0.36667   0.17531   1.000
    O155    O    0.06866   0.63331   0.17534   1.000
    O156    O    0.70590   0.88200   0.20524   1.000
    O157    O    0.65606   0.82354   0.21179   1.000
    O158    O    0.29415   0.11795   0.20535   1.000
    O159    O    0.34397   0.17642   0.21186   1.000
    O160    O    0.91324   0.31268   0.23167   1.000
    O161    O    0.08676   0.68726   0.23167   1.000
    O162    O    0.43691   0.30656   0.20980   1.000
    O163    O    0.39503   0.24397   0.21354   1.000
    O164    O    0.56306   0.69343   0.20991   1.000
    O165    O    0.60498   0.75600   0.21355   1.000
    O166    O    0.58674   0.81264   0.26830   1.000
    O167    O    0.41329   0.18733   0.26837   1.000
    O168    O    0.10498   0.74388   0.28644   1.000
    O169    O    0.15607   0.67633   0.28820   1.000
    O170    O    0.89501   0.25604   0.28649   1.000
    O171    O    0.84393   0.32360   0.28819   1.000
    O172    O    0.06305   0.80647   0.29011   1.000
    O173    O    0.93692   0.19345   0.29023   1.000
    O174    O    0.79409   0.38208   0.29471   1.000
    O175    O    0.20592   0.61786   0.29478   1.000
    O176    O    0.12483   0.79931   0.33819   1.000
    O177    O    0.87515   0.20060   0.33830   1.000
    O178    O    0.56864   0.86660   0.32465   1.000
    O179    O    0.51876   0.80463   0.32624   1.000
    O180    O    0.43146   0.13334   0.32472   1.000
    O181    O    0.48120   0.19538   0.32628   1.000
    O182    O    0.77498   0.33348   0.34167   1.000
    O183    O    0.22502   0.66645   0.34170   1.000
    O184    O    0.54601   0.90572   0.37653   1.000
    O185    O    0.45411   0.09421   0.37661   1.000
    O186    O    0.46612   0.80674   0.37906   1.000
    O187    O    0.53378   0.19330   0.37913   1.000
    O188    O    0.15006   0.84576   0.38645   1.000
    O189    O    0.19471   0.78823   0.39036   1.000
    O190    O    0.84989   0.15414   0.38661   1.000
    O191    O    0.80526   0.21168   0.39046   1.000
    O192    O    0.71401   0.33623   0.39101   1.000
    O193    O    0.75618   0.27699   0.39214   1.000
    O194    O    0.28598   0.66368   0.39103   1.000
    O195    O    0.24381   0.72292   0.39211   1.000
    O196    O    0.28357   0.78909   0.45405   1.000
    O197    O    0.71639   0.21087   0.45416   1.000
    O198    O    0.48267   0.86911   0.41040   1.000
    O199    O    0.51733   0.13088   0.41051   1.000
    O200    O    0.39283   0.82358   0.45564   1.000
    O201    O    0.60711   0.17644   0.45577   1.000
    O202    O    0.30426   0.89048   0.49991   1.000
    O203    O    0.39287   0.82355   0.54423   1.000
    O204    O    0.28356   0.78918   0.54587   1.000
    O205    O    0.69570   0.10953   0.50010   1.000
    O206    O    0.60710   0.17643   0.54436   1.000
    O207    O    0.71637   0.21089   0.54597   1.000
    O208    O    0.48268   0.86909   0.58947   1.000
    O209    O    0.46623   0.80668   0.62083   1.000
    O210    O    0.51725   0.13089   0.58958   1.000
    O211    O    0.53377   0.19326   0.62094   1.000
    O212    O    0.54588   0.90577   0.62337   1.000
    O213    O    0.45395   0.09425   0.62326   1.000
    O214    O    0.24377   0.72308   0.60788   1.000
    O215    O    0.19470   0.78841   0.60959   1.000
    O216    O    0.75612   0.27702   0.60793   1.000
    O217    O    0.80524   0.21172   0.60967   1.000
    O218    O    0.71394   0.33625   0.60900   1.000
    O219    O    0.28591   0.66383   0.60899   1.000
    O220    O    0.15009   0.84595   0.61345   1.000
    O221    O    0.84990   0.15420   0.61358   1.000
    O222    O    0.22494   0.66658   0.65828   1.000
    O223    O    0.77491   0.33350   0.65834   1.000
    O224    O    0.12482   0.79948   0.66175   1.000
    O225    O    0.87514   0.20066   0.66183   1.000
    O226    O    0.51880   0.80461   0.67369   1.000
    O227    O    0.48115   0.19533   0.67376   1.000
    O228    O    0.43131   0.13334   0.67514   1.000
    O229    O    0.56854   0.86666   0.67528   1.000
    O230    O    0.20581   0.61797   0.70522   1.000
    O231    O    0.15599   0.67645   0.71177   1.000
    O232    O    0.79402   0.38210   0.70524   1.000
    O233    O    0.84389   0.32363   0.71182   1.000
    O234    O    0.58670   0.81268   0.73162   1.000
    O235    O    0.41319   0.18729   0.73167   1.000
    O236    O    0.06304   0.80662   0.70982   1.000
    O237    O    0.10493   0.74402   0.71354   1.000
    O238    O    0.93693   0.19351   0.70990   1.000
    O239    O    0.89500   0.25609   0.71358   1.000
    O240    O    0.08668   0.68736   0.76833   1.000
    O241    O    0.91321   0.31272   0.76834   1.000
    O242    O    0.60496   0.75604   0.78644   1.000
    O243    O    0.65599   0.82360   0.78814   1.000
    O244    O    0.39497   0.24391   0.78644   1.000
    O245    O    0.34388   0.17638   0.78819   1.000
    O246    O    0.43690   0.30648   0.79014   1.000
    O247    O    0.56311   0.69344   0.79018   1.000
    O248    O    0.70578   0.88209   0.79468   1.000
    O249    O    0.29403   0.11793   0.79475   1.000
    O250    O    0.37513   0.29933   0.83821   1.000
    O251    O    0.62486   0.70060   0.83826   1.000
    O252    O    0.93133   0.36668   0.82466   1.000
    O253    O    0.98118   0.30467   0.82626   1.000
    O254    O    0.06854   0.63337   0.82468   1.000
    O255    O    0.01875   0.69540   0.82627   1.000
    O256    O    0.72492   0.83349   0.84165   1.000
    O257    O    0.27492   0.16651   0.84168   1.000
    O258    O    0.95395   0.40578   0.87654   1.000
    O259    O    0.04591   0.59424   0.87658   1.000
    O260    O    0.03379   0.30675   0.87908   1.000
    O261    O    0.96616   0.69332   0.87911   1.000
    O262    O    0.34989   0.34577   0.88650   1.000
    O263    O    0.30525   0.28825   0.89038   1.000
    O264    O    0.65014   0.65415   0.88658   1.000
    O265    O    0.69471   0.71170   0.89043   1.000
    O266    O    0.78586   0.83626   0.89099   1.000
    O267    O    0.74374   0.77702   0.89212   1.000
    O268    O    0.21397   0.16375   0.89102   1.000
    O269    O    0.25614   0.22296   0.89211   1.000
    O270    O    0.21637   0.28909   0.95407   1.000
    O271    O    0.01726   0.36913   0.91042   1.000
    O272    O    0.99363   0.45308   0.95473   1.000
    O273    O    0.98266   0.63090   0.91048   1.000
    O274    O    0.00630   0.54693   0.95476   1.000
    O275    O    0.10709   0.32357   0.95567   1.000
    O276    O    0.19566   0.39045   0.99993   1.000
    O277    O    0.88780   0.51706   1.00000   1.000
loop_
    _geom_bond_atom_site_label_1
    _geom_bond_atom_site_label_2
    _geom_bond_distance
    _geom_bond_site_symmetry_2
    _ccdc_geom_bond_type
    C122   O130      0.67208      .   S
    C121   O130      0.67208  1_655   S
    C122   O131      0.66392      .   S
    C123   O131      0.66392      .   S
    C122   O132      1.02029      .   S
    C2     O132      1.02029  1_556   S
    C117   O133      0.67207      .   S
    C116   O133      0.67207  1_455   S
    C117   O134      0.66397      .   S
    C118   O134      0.66397      .   S
    C121   O135      0.66186      .   S
    C124   O135      0.66186      .   S
    C121   O136      1.01818      .   S
    C5     O136      1.01818  1_556   S
    C116   O137      0.66187      .   S
    C119   O137      0.66187      .   S
    C116   O138      1.01920      .   S
    C5     O138      1.01920  1_656   S
    C110   O139      0.67504      .   S
    C67    O139      0.67504      .   S
    C110   O140      0.67502      .   S
    C64    O140      0.67502      .   S
    C110   O141      1.02436      .   S
    C2     O141      1.02436  1_556   S
    C115   O142      0.67506      .   S
    C73    O142      0.67506      .   S
    C115   O143      0.67482      .   S
    C70    O143      0.67482      .   S
    C29    O144      0.54454      .   S
    C73    O144      0.54454      .   S
    C25    O145      0.54450      .   S
    C67    O145      0.54450      .   S
    C22    O146      0.54581      .   S
    C64    O146      0.54581      .   S
    C26    O147      0.54581      .   S
    C70    O147      0.54581      .   S
    C73    O148      0.69266      .   S
    C71    O148      0.69266      .   S
    C67    O149      0.69276      .   S
    C65    O149      0.69276      .   S
    C64    O150      0.69384      .   S
    C66    O150      0.69384      .   S
    C70    O151      0.69422      .   S
    C72    O151      0.69422      .   S
    C123   O152      0.67699  1_455   S
    C81    O152      0.67699      .   S
    C118   O153      0.67696  1_655   S
    C75    O153      0.67696      .   S
    C124   O154      0.67620      .   S
    C81    O154      0.67620      .   S
    C119   O155      0.67620      .   S
    C75    O155      0.67620      .   S
    C71    O156      0.54432      .   S
    C27    O156      0.54432      .   S
    C71    O157      0.70200      .   S
    C68    O157      0.70200      .   S
    C65    O158      0.54437      .   S
    C23    O158      0.54437      .   S
    C65    O159      0.70223      .   S
    C62    O159      0.70223      .   S
    C81    O160      0.72815      .   S
    C80    O160      0.72815      .   S
    C75    O161      0.72820      .   S
    C74    O161      0.72820      .   S
    C66    O162      0.54436      .   S
    C24    O162      0.54436      .   S
    C66    O163      0.70180      .   S
    C62    O163      0.70180      .   S
    C72    O164      0.54436      .   S
    C28    O164      0.54436      .   S
    C72    O165      0.70160      .   S
    C68    O165      0.70160      .   S
    C68    O166      0.72842      .   S
    C69    O166      0.72842      .   S
    C62    O167      0.72820      .   S
    C63    O167      0.72820      .   S
    C74    O168      0.70178      .   S
    C78    O168      0.70178      .   S
    C74    O169      0.70221      .   S
    C77    O169      0.70221      .   S
    C80    O170      0.70180      .   S
    C84    O170      0.70180      .   S
    C80    O171      0.70222      .   S
    C83    O171      0.70222      .   S
    C32    O172      0.54434      .   S
    C78    O172      0.54434      .   S
    C36    O173      0.54434      .   S
    C84    O173      0.54434      .   S
    C35    O174      0.54434      .   S
    C83    O174      0.54434      .   S
    C31    O175      0.54437      .   S
    C77    O175      0.54437      .   S
    C78    O176      0.69391      .   S
    C76    O176      0.69391      .   S
    C84    O177      0.69388      .   S
    C82    O177      0.69388      .   S
    C69    O178      0.67630      .   S
    C114   O178      0.67630      .   S
    C69    O179      0.67702      .   S
    C113   O179      0.67702      .   S
    C63    O180      0.67618      .   S
    C109   O180      0.67618      .   S
    C63    O181      0.67677      .   S
    C108   O181      0.67677      .   S
    C83    O182      0.69267      .   S
    C85    O182      0.69267      .   S
    C77    O183      0.69269      .   S
    C79    O183      0.69269      .   S
    C114   O184      0.66185      .   S
    C111   O184      0.66185      .   S
    C109   O185      0.66185      .   S
    C106   O185      0.66185      .   S
    C113   O186      0.66393      .   S
    C112   O186      0.66393      .   S
    C108   O187      0.66423      .   S
    C107   O187      0.66423      .   S
    C76    O188      0.54579      .   S
    C30    O188      0.54579      .   S
    C76    O189      0.67502      .   S
    C120   O189      0.67502      .   S
    C82    O190      0.54580      .   S
    C34    O190      0.54580      .   S
    C82    O191      0.67504      .   S
    C125   O191      0.67504      .   S
    C85    O192      0.54456      .   S
    C37    O192      0.54456      .   S
    C85    O193      0.67507      .   S
    C125   O193      0.67507      .   S
    C79    O194      0.54454      .   S
    C33    O194      0.54454      .   S
    C79    O195      0.67505      .   S
    C120   O195      0.67505      .   S
    C120   O196      1.02465      .   S
    C0     O196      1.02465      .   S
    C125   O197      1.02445      .   S
    C1     O197      1.02445      .   S
    C111   O198      0.67203      .   S
    C112   O198      0.67203      .   S
    C106   O199      0.67204      .   S
    C107   O199      0.67204      .   S
    C112   O200      1.01991      .   S
    C0     O200      1.01991      .   S
    C107   O201      1.02032      .   S
    C1     O201      1.02032      .   S
    C126   O202      1.20274      .   S
    C0     O202      1.20274      .   S
    C0     O203      1.02039      .   S
    C87    O203      1.02039      .   S
    C0     O204      1.02438      .   S
    C105   O204      1.02438      .   S
    C1     O205      1.20277      .   S
    C127   O205      1.20277      .   S
    C1     O206      1.01997      .   S
    C92    O206      1.01997      .   S
    C1     O207      1.02450      .   S
    C100   O207      1.02450      .   S
    C87    O208      0.67205      .   S
    C86    O208      0.67205      .   S
    C87    O209      0.66394      .   S
    C88    O209      0.66394      .   S
    C92    O210      0.67205      .   S
    C91    O210      0.67205      .   S
    C92    O211      0.66398      .   S
    C93    O211      0.66398      .   S
    C86    O212      0.66186      .   S
    C89    O212      0.66186      .   S
    C91    O213      0.65940      .   S
    C94    O213      0.65940      .   S
    C105   O214      0.67506      .   S
    C61    O214      0.67506      .   S
    C105   O215      0.67501      .   S
    C58    O215      0.67501      .   S
    C100   O216      0.67510      .   S
    C55    O216      0.67510      .   S
    C100   O217      0.67504      .   S
    C52    O217      0.67504      .   S
    C17    O218      0.54469      .   S
    C55    O218      0.54469      .   S
    C21    O219      0.54456      .   S
    C61    O219      0.54456      .   S
    C18    O220      0.54583      .   S
    C58    O220      0.54583      .   S
    C14    O221      0.54582      .   S
    C52    O221      0.54582      .   S
    C61    O222      0.69212      .   S
    C59    O222      0.69212      .   S
    C55    O223      0.69266      .   S
    C53    O223      0.69266      .   S
    C58    O224      0.69389      .   S
    C60    O224      0.69389      .   S
    C52    O225      0.69388      .   S
    C54    O225      0.69388      .   S
    C88    O226      0.67696      .   S
    C39    O226      0.67696      .   S
    C93    O227      0.67689      .   S
    C45    O227      0.67689      .   S
    C94    O228      0.67761      .   S
    C45    O228      0.67761      .   S
    C89    O229      0.67617      .   S
    C39    O229      0.67617      .   S
    C59    O230      0.54462      .   S
    C19    O230      0.54462      .   S
    C59    O231      0.70255      .   S
    C56    O231      0.70255      .   S
    C53    O232      0.54437      .   S
    C15    O232      0.54437      .   S
    C53    O233      0.70225      .   S
    C50    O233      0.70225      .   S
    C39    O234      0.72792      .   S
    C38    O234      0.72792      .   S
    C45    O235      0.72815      .   S
    C44    O235      0.72815      .   S
    C60    O236      0.54432      .   S
    C20    O236      0.54432      .   S
    C60    O237      0.70179      .   S
    C56    O237      0.70179      .   S
    C54    O238      0.54436      .   S
    C16    O238      0.54436      .   S
    C54    O239      0.70181      .   S
    C50    O239      0.70181      .   S
    C56    O240      0.72816      .   S
    C57    O240      0.72816      .   S
    C50    O241      0.72816      .   S
    C51    O241      0.72816      .   S
    C38    O242      0.70188      .   S
    C42    O242      0.70188      .   S
    C38    O243      0.70233      .   S
    C41    O243      0.70233      .   S
    C44    O244      0.70180      .   S
    C48    O244      0.70180      .   S
    C44    O245      0.70222      .   S
    C47    O245      0.70222      .   S
    C12    O246      0.54433      .   S
    C48    O246      0.54433      .   S
    C8     O247      0.54433      .   S
    C42    O247      0.54433      .   S
    C7     O248      0.54436      .   S
    C41    O248      0.54436      .   S
    C11    O249      0.54437      .   S
    C47    O249      0.54437      .   S
    C48    O250      0.69389      .   S
    C46    O250      0.69389      .   S
    C42    O251      0.69387      .   S
    C40    O251      0.69387      .   S
    C51    O252      0.67624      .   S
    C99    O252      0.67624      .   S
    C51    O253      0.67698      .   S
    C98    O253      0.67698  1_455   S
    C57    O254      0.67619      .   S
    C104   O254      0.67619      .   S
    C57    O255      0.67697      .   S
    C103   O255      0.67697  1_655   S
    C41    O256      0.69266      .   S
    C43    O256      0.69266      .   S
    C47    O257      0.69265      .   S
    C49    O257      0.69265      .   S
    C99    O258      0.66183      .   S
    C96    O258      0.66183      .   S
    C104   O259      0.66185      .   S
    C101   O259      0.66185      .   S
    C98    O260      0.66395      .   S
    C97    O260      0.66395      .   S
    C103   O261      0.66395      .   S
    C102   O261      0.66395      .   S
    C46    O262      0.54581      .   S
    C10    O262      0.54581      .   S
    C46    O263      0.67501      .   S
    C95    O263      0.67501      .   S
    C40    O264      0.54583      .   S
    C6     O264      0.54583      .   S
    C40    O265      0.67503      .   S
    C90    O265      0.67503      .   S
    C43    O266      0.54457      .   S
    C9     O266      0.54457      .   S
    C43    O267      0.67507      .   S
    C90    O267      0.67507      .   S
    C49    O268      0.54457      .   S
    C13    O268      0.54457      .   S
    C49    O269      0.67505      .   S
    C95    O269      0.67505      .   S
    C95    O270      1.02450      .   S
    C2     O270      1.02450      .   S
    C96    O271      0.67206  1_655   S
    C97    O271      0.67206      .   S
    C96    O272      1.01913      .   S
    C5     O272      1.01913      .   S
    C101   O273      0.67207  1_455   S
    C102   O273      0.67207      .   S
    C101   O274      1.01813      .   S
    C5     O274      1.01813  1_655   S
    C97    O275      1.01999      .   S
    C2     O275      1.01999      .   S
    C128   O276      1.20275      .   S
    C2     O276      1.20275      .   S
    C5     O277      1.38486      .   S
    C129   O277      1.38486  1_554   S
