# CIF file generated by openbabel 2.4.90, see http://openbabel.sf.net
data_I
_chemical_name_common ''
_cell_length_a 12.124
_cell_length_b 15.264
_cell_length_c 15.916
_cell_angle_alpha 89.962
_cell_angle_beta 89.998
_cell_angle_gamma 89.986
_space_group_name_H-M_alt 'P 1'
_space_group_name_Hall 'P 1'
loop_
    _symmetry_equiv_pos_as_xyz
    x,y,z
loop_
    _atom_site_label
    _atom_site_type_symbol
    _atom_site_fract_x
    _atom_site_fract_y
    _atom_site_fract_z
    _atom_site_occupancy
    Zr0     Zr   0.33299   0.81505   0.49993   1.000
    Zr1     Zr   0.66696   0.18496   0.50008   1.000
    Zr2     Zr   0.16694   0.31503   0.99996   1.000
    Zr3     Zr   0.83302   0.68496   0.30000   1.000
    Zr4     Zr   0.49999   0.99998   0.00000   1.000
    Zr5     Zr   1.00000   0.50000   0.99999   1.000
    N6      N    0.12276   0.70546   0.72765   1.000
    O7      O    0.06453   0.62620   0.84121   1.000
    O8      O    0.20316   0.74732   0.63676   1.000
    N9      N    0.37715   0.20537   0.77231   1.000
    O10     O    0.49212   0.19090   0.65834   1.000
    O11     O    0.29676   0.24723   0.86319   1.000
    N12     N    0.62280   0.79456   0.22766   1.000
    O13     O    0.50781   0.80907   0.34165   1.000
    N14     N    0.87715   0.29463   0.72768   1.000
    O15     O    0.93539   0.37385   0.84121   1.000
    O16     O    0.99212   0.30910   0.84167   1.000
    O17     O    0.79676   0.25276   0.63683   1.000
    N18     N    0.12282   0.70534   0.27233   1.000
    O19     O    0.06459   0.62614   0.15879   1.000
    O20     O    0.20319   0.74722   0.36319   1.000
    N21     N    0.62277   0.79460   0.77232   1.000
    O22     O    0.50782   0.80907   0.65827   1.000
    N23     N    0.37721   0.20542   0.22769   1.000
    O24     O    0.49216   0.19093   0.34173   1.000
    O25     O    0.29680   0.24728   0.13679   1.000
    N26     N    0.87718   0.29459   0.27235   1.000
    O27     O    0.79679   0.25273   0.36325   1.000
    O28     O    0.93542   0.37383   0.15878   1.000
    O29     O    0.99212   0.30906   0.15830   1.000
    N30     N    0.27553   0.96590   0.49988   1.000
    O31     O    0.28990   0.92819   0.49989   1.000
    N32     N    0.22438   0.46586   0.99990   1.000
    O33     O    0.21002   0.42816   0.99991   1.000
    N34     N    0.72444   0.03411   0.50011   1.000
    O35     O    0.71007   0.07182   0.50010   1.000
    N36     N    0.77561   0.53412   0.00000   1.000
    O37     O    0.83171   0.52559   1.00000   1.000
loop_
    _geom_bond_atom_site_label_1
    _geom_bond_atom_site_label_2
    _geom_bond_distance
    _geom_bond_site_symmetry_2
    _ccdc_geom_bond_type
    N6     O7        2.28602      .   S
    Zr5    O7        3.27159  1_655   S
    N6     O8        1.85750      .   S
    Zr0    O8        2.87871      .   S
    N9     O10       2.29846      .   S
    Zr1    O10       3.29333      .   S
    N9     O11       1.85770      .   S
    Zr2    O11       2.87898      .   S
    N12    O13       2.29872      .   S
    Zr0    O13       3.29351      .   S
    N14    O15       2.28672      .   S
    Zr5    O15       3.27343      .   S
    N14    O16       2.29877      .   S
    Zr2    O16       3.29367  1_455   S
    N14    O17       1.85768      .   S
    Zr1    O17       2.87899      .   S
    N18    O19       2.28671      .   S
    Zr5    O19       3.27348  1_656   S
    N18    O20       1.85767      .   S
    Zr0    O20       2.87909      .   S
    N21    O22       2.29896      .   S
    Zr0    O22       3.29430      .   S
    N23    O24       2.29898      .   S
    Zr1    O24       3.29423      .   S
    N23    O25       1.85753      .   S
    Zr2    O25       2.87869  1_556   S
    N26    O27       1.85757      .   S
    Zr1    O27       2.87881      .   S
    N26    O28       2.28605      .   S
    Zr5    O28       3.27168  1_556   S
    N26    O29       2.29892      .   S
    Zr2    O29       3.29418  1_456   S
    N30    O31       0.60137      .   S
    Zr0    O31       1.80410      .   S
    N32    O33       0.60137      .   S
    Zr2    O33       1.80412      .   S
    N34    O35       0.60139      .   S
    Zr1    O35       1.80416      .   S
    N36    O37       0.69243  1_554   S
    Zr5    O37       2.07729      .   S
