# CIF file generated by openbabel 2.4.90, see http://openbabel.sf.net
data_I
_chemical_name_common ''
_cell_length_a 20.636
_cell_length_b 15.499
_cell_length_c 23.722
_cell_angle_alpha 89.798
_cell_angle_beta 89.984
_cell_angle_gamma 90.015
_space_group_name_H-M_alt 'P 1'
_space_group_name_Hall 'P 1'
loop_
    _symmetry_equiv_pos_as_xyz
    x,y,z
loop_
    _atom_site_label
    _atom_site_type_symbol
    _atom_site_fract_x
    _atom_site_fract_y
    _atom_site_fract_z
    _atom_site_occupancy
    Zr0     Zr   0.30518   0.30355   0.01989   1.000
    Zr1     Zr   0.80519   0.30355   0.01989   1.000
    Zr2     Zr   0.20534   0.13719   0.98016   1.000
    Zr3     Zr   0.70535   0.13719   0.98016   1.000
    Zr4     Zr   0.44733   0.69600   0.51898   1.000
    Zr5     Zr   0.94734   0.69600   0.51898   1.000
    Zr6     Zr   0.04715   0.86317   0.48107   1.000
    Zr7     Zr   0.54716   0.86317   0.48107   1.000
    Zr8     Zr   0.19733   0.80400   0.48100   1.000
    Zr9     Zr   0.69734   0.80400   0.48103   1.000
    Zr10    Zr   0.29713   0.63683   0.51897   1.000
    Zr11    Zr   0.79714   0.63683   0.51890   1.000
    Zr12    Zr   0.05516   0.19645   0.98014   1.000
    Zr13    Zr   0.55518   0.19645   0.98014   1.000
    Zr14    Zr   0.45536   0.36283   0.01983   1.000
    Zr15    Zr   0.95538   0.36283   0.01980   1.000
    N16     N    0.12973   0.01375   0.72664   1.000
    O17     O    0.16002   0.92915   0.62008   1.000
    O18     O    0.09814   0.09389   0.83428   1.000
    O19     O    0.09578   0.95308   0.62107   1.000
    O20     O    0.16061   0.06333   0.83552   1.000
    N21     N    0.14848   0.64421   0.61526   1.000
    O22     O    0.07112   0.65997   0.57123   1.000
    O23     O    0.20107   0.65180   0.56501   1.000
    O24     O    0.11096   0.72594   0.54948   1.000
    N25     N    0.37973   0.48623   0.27338   1.000
    O26     O    0.34815   0.40610   0.16575   1.000
    O27     O    0.34578   0.54690   0.37896   1.000
    O28     O    0.41062   0.43667   0.16449   1.000
    O29     O    0.41003   0.57085   0.37992   1.000
    N30     N    0.62204   0.98778   0.22689   1.000
    O31     O    0.59124   0.93834   0.33616   1.000
    O32     O    0.59210   0.07177   0.11980   1.000
    O33     O    0.65630   0.04768   0.12077   1.000
    O34     O    0.65365   0.90770   0.33496   1.000
    N35     N    0.64849   0.64421   0.61526   1.000
    O36     O    0.57112   0.65997   0.57123   1.000
    O37     O    0.70108   0.65180   0.56500   1.000
    O38     O    0.61097   0.72594   0.54949   1.000
    N39     N    0.12203   0.98778   0.22689   1.000
    O40     O    0.15629   0.04768   0.12077   1.000
    O41     O    0.15363   0.90770   0.33495   1.000
    O42     O    0.09122   0.93834   0.33616   1.000
    O43     O    0.09209   0.07176   0.11980   1.000
    N44     N    0.89852   0.85580   0.38476   1.000
    O45     O    0.86098   0.77406   0.45052   1.000
    O46     O    0.95110   0.84820   0.43500   1.000
    O47     O    0.82115   0.84003   0.42879   1.000
    N48     N    0.37202   0.51221   0.77313   1.000
    O49     O    0.40630   0.45233   0.87924   1.000
    O50     O    0.40362   0.59230   0.66503   1.000
    O51     O    0.34121   0.56166   0.66387   1.000
    O52     O    0.34209   0.42824   0.88024   1.000
    N53     N    0.39851   0.85580   0.38475   1.000
    O54     O    0.45110   0.84820   0.43501   1.000
    O55     O    0.36097   0.77406   0.45053   1.000
    O56     O    0.32114   0.84003   0.42877   1.000
    N57     N    0.87974   0.48623   0.27338   1.000
    O58     O    0.91063   0.43667   0.16448   1.000
    O59     O    0.84816   0.40610   0.16575   1.000
    O60     O    0.91004   0.57084   0.37991   1.000
    O61     O    0.84579   0.54689   0.37895   1.000
    N62     N    0.35367   0.14488   0.88543   1.000
    O63     O    0.30119   0.15218   0.93530   1.000
    O64     O    0.39136   0.22607   0.95132   1.000
    O65     O    0.43113   0.16043   0.92907   1.000
    N66     N    0.10366   0.35511   0.11457   1.000
    O67     O    0.14135   0.27393   0.04868   1.000
    O68     O    0.05120   0.34782   0.06469   1.000
    O69     O    0.18113   0.33956   0.07091   1.000
    N70     N    0.62974   0.01375   0.72663   1.000
    O71     O    0.59579   0.95308   0.62107   1.000
    O72     O    0.59815   0.09390   0.83427   1.000
    O73     O    0.66062   0.06333   0.83552   1.000
    O74     O    0.66003   0.92915   0.62007   1.000
    N75     N    0.87189   0.51220   0.77314   1.000
    O76     O    0.90356   0.59230   0.66504   1.000
    O77     O    0.84115   0.56165   0.66386   1.000
    O78     O    0.84203   0.42824   0.88024   1.000
    O79     O    0.90624   0.45232   0.87923   1.000
    N80     N    0.85368   0.14488   0.88543   1.000
    O81     O    0.93114   0.16043   0.92907   1.000
    O82     O    0.80120   0.15218   0.93530   1.000
    O83     O    0.89137   0.22608   0.95131   1.000
    N84     N    0.60367   0.35511   0.11457   1.000
    O85     O    0.55120   0.34782   0.06470   1.000
    O86     O    0.68114   0.33956   0.07091   1.000
    O87     O    0.64136   0.27393   0.04868   1.000
    O88     O    0.83999   0.20251   0.94828   1.000
    O89     O    0.66232   0.70237   0.55250   1.000
    O90     O    0.08998   0.29748   0.05172   1.000
    O91     O    0.33998   0.20251   0.94828   1.000
    O92     O    0.41233   0.79763   0.44751   1.000
    O93     O    0.16231   0.70237   0.55249   1.000
    O94     O    0.58999   0.29749   0.05172   1.000
    O95     O    0.91234   0.79763   0.44751   1.000
loop_
    _geom_bond_atom_site_label_1
    _geom_bond_atom_site_label_2
    _geom_bond_distance
    _geom_bond_site_symmetry_2
    _ccdc_geom_bond_type
    N16    O17       2.91924  1_545   S
    Zr8    O17       3.90961      .   S
    N16    O18       2.91714      .   S
    Zr12   O18       3.91457      .   S
    N16    O19       2.76826  1_545   S
    Zr6    O19       3.74333      .   S
    N16    O20       2.77186      .   S
    Zr2    O20       3.73680      .   S
    N21    O22       1.92318      .   S
    Zr5    O22       2.89304  1_655   S
    N21    O23       1.61578      .   S
    Zr10   O23       2.27528      .   S
    N21    O24       2.15080      .   S
    Zr6    O24       2.97828      .   S
    N25    O26       2.91715      .   S
    Zr0    O26       3.91456      .   S
    N25    O27       2.76846      .   S
    Zr10   O27       3.74334      .   S
    N25    O28       2.77177      .   S
    Zr14   O28       3.73683      .   S
    N25    O29       2.91921      .   S
    Zr4    O29       3.90935      .   S
    N30    O31       2.77401      .   S
    Zr7    O31       3.73788      .   S
    N30    O32       2.91677  1_565   S
    Zr13   O32       3.90480  1_556   S
    N30    O33       2.77140  1_565   S
    Zr3    O33       3.74691  1_556   S
    N30    O34       2.91850      .   S
    Zr9    O34       3.91998      .   S
    N35    O36       1.92330      .   S
    Zr4    O36       2.89338      .   S
    N35    O37       1.61613      .   S
    Zr11   O37       2.27592      .   S
    N35    O38       2.15083      .   S
    Zr7    O38       2.97830      .   S
    N39    O40       2.77142  1_565   S
    Zr2    O40       3.74694  1_556   S
    N39    O41       2.91831      .   S
    Zr8    O41       3.91950      .   S
    N39    O42       2.77400      .   S
    Zr6    O42       3.73785      .   S
    N39    O43       2.91678  1_565   S
    Zr12   O43       3.90483  1_556   S
    N44    O45       2.15022      .   S
    Zr11   O45       2.97722      .   S
    N44    O46       1.61597      .   S
    Zr6    O46       2.27579  1_455   S
    N44    O47       1.92273      .   S
    Zr9    O47       2.89272      .   S
    N48    O49       2.77175      .   S
    Zr14   O49       3.74734  1_554   S
    N48    O50       2.91847      .   S
    Zr4    O50       3.91903      .   S
    N48    O51       2.77418      .   S
    Zr10   O51       3.73820      .   S
    N48    O52       2.91663      .   S
    Zr0    O52       3.90422  1_554   S
    N53    O54       1.61643      .   S
    Zr7    O54       2.27602      .   S
    N53    O55       2.15063      .   S
    Zr10   O55       2.97799      .   S
    N53    O56       1.92265      .   S
    Zr8    O56       2.89259      .   S
    N57    O58       2.77195      .   S
    Zr15   O58       3.73735      .   S
    N57    O59       2.91716      .   S
    Zr1    O59       3.91457      .   S
    N57    O60       2.91899      .   S
    Zr5    O60       3.90955      .   S
    N57    O61       2.76805      .   S
    Zr11   O61       3.74223      .   S
    N62    O63       1.60791      .   S
    Zr2    O63       2.25741      .   S
    N62    O64       2.15544      .   S
    Zr14   O64       2.98368  1_554   S
    N62    O65       1.92041      .   S
    Zr13   O65       2.88748      .   S
    N66    O67       2.15524      .   S
    Zr2    O67       2.98355  1_556   S
    N66    O68       1.60821      .   S
    Zr15   O68       2.25787  1_655   S
    N66    O69       1.92031      .   S
    Zr0    O69       2.88671      .   S
    N70    O71       2.76823  1_545   S
    Zr7    O71       3.74329      .   S
    N70    O72       2.91717      .   S
    Zr13   O72       3.91460      .   S
    N70    O73       2.77190      .   S
    Zr3    O73       3.73683      .   S
    N70    O74       2.91937  1_545   S
    Zr9    O74       3.90883      .   S
    N75    O76       2.91890      .   S
    Zr5    O76       3.91949      .   S
    N75    O77       2.77434      .   S
    Zr11   O77       3.73910      .   S
    N75    O78       2.91624      .   S
    Zr1    O78       3.90379  1_554   S
    N75    O79       2.77185      .   S
    Zr15   O79       3.74716  1_554   S
    N80    O81       1.92031      .   S
    Zr12   O81       2.88716  1_455   S
    N80    O82       1.60791      .   S
    Zr3    O82       2.25741      .   S
    N80    O83       2.15532      .   S
    Zr15   O83       2.98339  1_554   S
    N84    O85       1.60814      .   S
    Zr14   O85       2.25793      .   S
    N84    O86       1.92031      .   S
    Zr1    O86       2.88672      .   S
    N84    O87       2.15523      .   S
    Zr3    O87       2.98355  1_556   S
    Zr1    O88       2.42322  1_554   S
    N80    O88       1.76354      .   S
    Zr9    O89       2.42031      .   S
    N35    O89       1.76093      .   S
    Zr12   O90       2.42296  1_556   S
    N66    O90       1.76337      .   S
    Zr0    O91       2.42323  1_554   S
    N62    O91       1.76355      .   S
    Zr4    O92       2.42074      .   S
    N53    O92       1.76116      .   S
    Zr8    O93       2.42065      .   S
    N21    O93       1.76104      .   S
    Zr13   O94       2.42294  1_556   S
    N84    O94       1.76335      .   S
    Zr5    O95       2.42075      .   S
    N44    O95       1.76088      .   S
