# CIF file generated by openbabel 2.4.90, see http://openbabel.sf.net
data_I
_chemical_name_common ''
_cell_length_a 15.945
_cell_length_b 19.362
_cell_length_c 21.91
_cell_angle_alpha 64.228
_cell_angle_beta 88.743
_cell_angle_gamma 76.382
_space_group_name_H-M_alt 'P 1'
_space_group_name_Hall 'P 1'
loop_
    _symmetry_equiv_pos_as_xyz
    x,y,z
loop_
    _atom_site_label
    _atom_site_type_symbol
    _atom_site_fract_x
    _atom_site_fract_y
    _atom_site_fract_z
    _atom_site_occupancy
    Zn0     Zn   0.18174   0.22657   0.72550   1.000
    Zn1     Zn   0.18442   0.72545   0.22481   1.000
    Zn2     Zn   0.18173   0.72658   0.72550   1.000
    Zn3     Zn   0.68443   0.22544   0.22481   1.000
    Zn4     Zn   0.68174   0.22658   0.72550   1.000
    Zn5     Zn   0.68443   0.72545   0.22480   1.000
    Zn6     Zn   0.68175   0.72658   0.72550   1.000
    Zn7     Zn   0.31826   0.27340   0.27448   1.000
    Zn8     Zn   0.31559   0.27453   0.77517   1.000
    Zn9     Zn   0.31826   0.77340   0.27448   1.000
    Zn10    Zn   0.31558   0.77454   0.77510   1.000
    Zn11    Zn   0.81828   0.27340   0.27448   1.000
    Zn12    Zn   0.81560   0.27453   0.77517   1.000
    Zn13    Zn   0.81827   0.77340   0.27448   1.000
    Zn14    Zn   0.81561   0.77453   0.77517   1.000
    Zn15    Zn   0.18441   0.22544   0.22480   1.000
    C16     C    0.22872   0.13477   0.36643   1.000
    C17     C    0.22624   0.13569   0.86688   1.000
    C18     C    0.22874   0.63476   0.36643   1.000
    C19     C    0.22626   0.63569   0.86687   1.000
    C20     C    0.72874   0.13477   0.36643   1.000
    C21     C    0.72626   0.13568   0.86688   1.000
    C22     C    0.72874   0.63478   0.36643   1.000
    C23     C    0.72628   0.63568   0.86687   1.000
    C24     C    0.37339   0.13777   0.24243   1.000
    C25     C    0.37113   0.13898   0.74323   1.000
    C26     C    0.37339   0.63777   0.24244   1.000
    C27     C    0.37111   0.63900   0.74322   1.000
    C28     C    0.87341   0.13776   0.24245   1.000
    C29     C    0.87113   0.13899   0.74320   1.000
    C30     C    0.87340   0.63777   0.24244   1.000
    C31     C    0.87114   0.63899   0.74322   1.000
    O32     O    0.89790   0.18610   0.75988   1.000
    O33     O    0.90007   0.68509   0.25890   1.000
    O34     O    0.89791   0.68611   0.75988   1.000
    O35     O    0.32947   0.35761   0.17772   1.000
    O36     O    0.32698   0.35830   0.67829   1.000
    O37     O    0.32947   0.85761   0.17772   1.000
    O38     O    0.32697   0.85832   0.67829   1.000
    O39     O    0.82949   0.35761   0.17772   1.000
    C40     C    0.27374   0.36429   0.13310   1.000
    C41     C    0.27127   0.36521   0.63355   1.000
    C42     C    0.27376   0.86428   0.13309   1.000
    C43     C    0.27128   0.86521   0.63354   1.000
    C44     C    0.77375   0.36429   0.13310   1.000
    C45     C    0.77129   0.36521   0.63354   1.000
    C46     C    0.77376   0.86429   0.13310   1.000
    C47     C    0.77130   0.86521   0.63354   1.000
    C48     C    0.12886   0.36098   0.25674   1.000
    C49     C    0.12661   0.36220   0.75754   1.000
    C50     C    0.12887   0.86099   0.25674   1.000
    C51     C    0.12660   0.86221   0.75754   1.000
    C52     C    0.62889   0.36098   0.25674   1.000
    C53     C    0.62662   0.36220   0.75754   1.000
    C54     C    0.62887   0.86098   0.25675   1.000
    C55     C    0.62663   0.86221   0.75753   1.000
    O56     O    0.17303   0.14167   0.32169   1.000
    O57     O    0.17053   0.14235   0.82226   1.000
    O58     O    0.17303   0.64168   0.32169   1.000
    O59     O    0.17052   0.64237   0.82226   1.000
    O60     O    0.67304   0.14167   0.32169   1.000
    O61     O    0.67053   0.14236   0.82220   1.000
    O62     O    0.67304   0.64168   0.32160   1.000
    O63     O    0.67054   0.64237   0.82220   1.000
    O64     O    0.27758   0.18082   0.35756   1.000
    O65     O    0.27432   0.18237   0.85803   1.000
    O66     O    0.27758   0.68083   0.35756   1.000
    O67     O    0.27431   0.68238   0.85803   1.000
    O68     O    0.77759   0.18082   0.35756   1.000
    O69     O    0.77433   0.18238   0.85803   1.000
    O70     O    0.77759   0.68083   0.35756   1.000
    O71     O    0.77433   0.68238   0.85803   1.000
    O72     O    0.29521   0.14505   0.22414   1.000
    O73     O    0.29291   0.14645   0.72480   1.000
    O74     O    0.29522   0.64505   0.22414   1.000
    O75     O    0.29289   0.64645   0.72488   1.000
    O76     O    0.79523   0.14505   0.22414   1.000
    O77     O    0.79291   0.14645   0.72488   1.000
    O78     O    0.79523   0.64506   0.22414   1.000
    O79     O    0.79292   0.64645   0.72488   1.000
    O80     O    0.40005   0.18508   0.25890   1.000
    O81     O    0.39790   0.18610   0.75988   1.000
    O82     O    0.40005   0.68509   0.25890   1.000
    O83     O    0.39788   0.68611   0.75988   1.000
    O84     O    0.90007   0.18508   0.25890   1.000
    O85     O    0.82699   0.35831   0.67829   1.000
    O86     O    0.82949   0.85762   0.17772   1.000
    O87     O    0.82699   0.85831   0.67829   1.000
    O88     O    0.22568   0.31759   0.14194   1.000
    O89     O    0.22244   0.31914   0.64242   1.000
    O90     O    0.22568   0.81760   0.14194   1.000
    O91     O    0.22243   0.81915   0.64242   1.000
    O92     O    0.72570   0.31759   0.14194   1.000
    O93     O    0.72245   0.31914   0.64242   1.000
    O94     O    0.72569   0.81760   0.14194   1.000
    O95     O    0.72245   0.81915   0.64242   1.000
    O96     O    0.20708   0.35352   0.27509   1.000
    O97     O    0.20479   0.35492   0.77584   1.000
    O98     O    0.20709   0.85352   0.27509   1.000
    O99     O    0.20478   0.85493   0.77580   1.000
    O100    O    0.70710   0.35352   0.27509   1.000
    O101    O    0.70480   0.35492   0.77580   1.000
    O102    O    0.70710   0.85352   0.27500   1.000
    O103    O    0.70480   0.85492   0.77584   1.000
    O104    O    0.10209   0.31386   0.24000   1.000
    O105    O    0.09995   0.31489   0.74107   1.000
    O106    O    0.10210   0.81387   0.24009   1.000
    O107    O    0.09995   0.81490   0.74107   1.000
    O108    O    0.60211   0.31386   0.24009   1.000
    O109    O    0.59996   0.31489   0.74107   1.000
    O110    O    0.60210   0.81387   0.24008   1.000
    O111    O    0.59997   0.81490   0.74107   1.000
loop_
    _geom_bond_atom_site_label_1
    _geom_bond_atom_site_label_2
    _geom_bond_distance
    _geom_bond_site_symmetry_2
    _ccdc_geom_bond_type
    C42    O90       1.26871      .   S
    C42    O37       1.27920      .   S
    C40    O88       1.26873      .   S
    C40    O35       1.27916      .   S
    C44    O92       1.26873      .   S
    C44    O39       1.27918      .   S
    C46    O94       1.26873      .   S
    C46    O86       1.27910      .   S
    O90    Zn1       2.14392      .   S
    O92    Zn3       2.14393      .   S
    O88    Zn15      2.14381      .   S
    O94    Zn5       2.14383      .   S
    O35    Zn7       2.07357      .   S
    O39    Zn11      2.07356      .   S
    O37    Zn9       2.07356      .   S
    O86    Zn13      2.07358      .   S
    O78    Zn5       2.06590      .   S
    O78    C30       1.27455      .   S
    O76    Zn3       2.06596      .   S
    O76    C28       1.27457      .   S
    O72    Zn15      2.06589      .   S
    O72    C24       1.27453      .   S
    O74    Zn1       2.06597      .   S
    O74    C26       1.27453      .   S
    Zn5    O110      2.04628      .   S
    Zn5    O62       2.07179      .   S
    Zn15   O104      2.04533      .   S
    Zn15   O56       2.07315      .   S
    Zn3    O108      2.04621      .   S
    Zn3    O60       2.07301      .   S
    Zn1    O106      2.04624      .   S
    Zn1    O58       2.07299      .   S
    O104   C48       1.27678      .   S
    O110   C54       1.27575      .   S
    O108   C52       1.27563      .   S
    O106   C50       1.27565      .   S
    C24    O80       1.27573      .   S
    C26    O82       1.27574      .   S
    C30    O33       1.27570      .   S
    C28    O84       1.27561      .   S
    C52    O100      1.27459      .   S
    C48    O96       1.27462      .   S
    C50    O98       1.27459      .   S
    C54    O102      1.27403      .   S
    O82    Zn9       2.04435      .   S
    O84    Zn11      2.04437      .   S
    O33    Zn13      2.04437      .   S
    O80    Zn7       2.04440      .   S
    Zn9    O98       2.06667      .   S
    Zn9    O66       2.14608      .   S
    Zn13   O102      2.06605      .   S
    Zn13   O70       2.14605      .   S
    Zn11   O100      2.06668      .   S
    Zn11   O68       2.14611      .   S
    Zn7    O96       2.06667      .   S
    Zn7    O64       2.14608      .   S
    O62    C22       1.28044      .   S
    O56    C16       1.27898      .   S
    O58    C18       1.27911      .   S
    O60    C20       1.27900      .   S
    O64    C16       1.26864      .   S
    O66    C18       1.26862      .   S
    O68    C20       1.26864      .   S
    O70    C22       1.26864      .   S
    C43    O91       1.26860      .   S
    C43    O38       1.27916      .   S
    C47    O95       1.26862      .   S
    C47    O87       1.27916      .   S
    C45    O93       1.26860      .   S
    C45    O85       1.27919      .   S
    C41    O89       1.26862      .   S
    C41    O36       1.27910      .   S
    O89    Zn0       2.14609      .   S
    O95    Zn6       2.14612      .   S
    O93    Zn4       2.14615      .   S
    O91    Zn2       2.14619      .   S
    O85    Zn12      2.07304      .   S
    O87    Zn14      2.07304      .   S
    O38    Zn10      2.07201      .   S
    O36    Zn8       2.07302      .   S
    O73    Zn0       2.06730      .   S
    O73    C25       1.27511      .   S
    O79    Zn6       2.06675      .   S
    O79    C31       1.27458      .   S
    O77    Zn4       2.06675      .   S
    O77    C29       1.27449      .   S
    O75    Zn2       2.06675      .   S
    O75    C27       1.27460      .   S
    Zn0    O105      2.04416      .   S
    Zn0    O57       2.07362      .   S
    Zn6    O111      2.04416      .   S
    Zn6    O63       2.07273      .   S
    Zn4    O109      2.04414      .   S
    Zn4    O61       2.07271      .   S
    Zn2    O107      2.04418      .   S
    Zn2    O59       2.07359      .   S
    O109   C53       1.27581      .   S
    O111   C55       1.27574      .   S
    O107   C51       1.27569      .   S
    O105   C49       1.27583      .   S
    C29    O32       1.27585      .   S
    C31    O34       1.27568      .   S
    C27    O83       1.27567      .   S
    C25    O81       1.27563      .   S
    C55    O103      1.27456      .   S
    C49    O97       1.27452      .   S
    C51    O99       1.27432      .   S
    C53    O101      1.27428      .   S
    O81    Zn8       2.04627      .   S
    O83    Zn10      2.04541      .   S
    O32    Zn12      2.04626      .   S
    O34    Zn14      2.04626      .   S
    Zn10   O99       2.06614      .   S
    Zn10   O67       2.14462      .   S
    Zn8    O97       2.06593      .   S
    Zn8    O65       2.14389      .   S
    Zn12   O101      2.06567      .   S
    Zn12   O69       2.14390      .   S
    Zn14   O103      2.06591      .   S
    Zn14   O71       2.14390      .   S
    O63    C23       1.28001      .   S
    O61    C21       1.28011      .   S
    O59    C19       1.27906      .   S
    O57    C17       1.27908      .   S
    O71    C23       1.26873      .   S
    O65    C17       1.26871      .   S
    O67    C19       1.26872      .   S
    O69    C21       1.26871      .   S
    Zn15   Zn7       2.91815      .   S
    Zn0    Zn8       2.91806      .   S
    Zn1    Zn9       2.91806      .   S
    Zn2    Zn10      2.91736      .   S
    Zn3    Zn11      2.91809      .   S
    Zn4    Zn12      2.91815      .   S
    Zn5    Zn13      2.91814      .   S
    Zn6    Zn14      2.91810      .   S
