# CIF file generated by openbabel 2.4.90, see http://openbabel.sf.net
data_I
_chemical_name_common ''
_cell_length_a 15.945
_cell_length_b 19.362
_cell_length_c 21.91
_cell_angle_alpha 64.228
_cell_angle_beta 88.743
_cell_angle_gamma 76.382
_space_group_name_H-M_alt 'P 1'
_space_group_name_Hall 'P 1'
loop_
    _symmetry_equiv_pos_as_xyz
    x,y,z
loop_
    _atom_site_label
    _atom_site_type_symbol
    _atom_site_fract_x
    _atom_site_fract_y
    _atom_site_fract_z
    _atom_site_occupancy
    C0      C    0.22872   0.13477   0.36643   1.000
    C1      C    0.22624   0.13569   0.86688   1.000
    C2      C    0.22874   0.63476   0.36643   1.000
    C3      C    0.22626   0.63569   0.86687   1.000
    C4      C    0.72874   0.13477   0.36643   1.000
    C5      C    0.72626   0.13568   0.86688   1.000
    C6      C    0.72874   0.63478   0.36643   1.000
    C7      C    0.72628   0.63568   0.86687   1.000
    C8      C    0.37339   0.13777   0.24243   1.000
    C9      C    0.37113   0.13898   0.74323   1.000
    C10     C    0.37339   0.63777   0.24244   1.000
    C11     C    0.37111   0.63900   0.74322   1.000
    C12     C    0.87341   0.13776   0.24245   1.000
    C13     C    0.87113   0.13899   0.74320   1.000
    C14     C    0.87340   0.63777   0.24244   1.000
    C15     C    0.87114   0.63899   0.74322   1.000
    C16     C    0.27374   0.36429   0.13310   1.000
    C17     C    0.27127   0.36521   0.63355   1.000
    C18     C    0.27376   0.86428   0.13309   1.000
    C19     C    0.27128   0.86521   0.63354   1.000
    C20     C    0.77375   0.36429   0.13310   1.000
    C21     C    0.77129   0.36521   0.63354   1.000
    C22     C    0.77376   0.86429   0.13310   1.000
    C23     C    0.77130   0.86521   0.63354   1.000
    C24     C    0.12886   0.36098   0.25674   1.000
    C25     C    0.12661   0.36220   0.75754   1.000
    C26     C    0.12887   0.86099   0.25674   1.000
    C27     C    0.12660   0.86221   0.75754   1.000
    C28     C    0.62889   0.36098   0.25674   1.000
    C29     C    0.62662   0.36220   0.75754   1.000
    C30     C    0.62887   0.86098   0.25675   1.000
    C31     C    0.62663   0.86221   0.75753   1.000
