# CIF file generated by openbabel 2.4.90, see http://openbabel.sf.net
data_I
_chemical_name_common ''
_cell_length_a 15.945
_cell_length_b 19.362
_cell_length_c 21.91
_cell_angle_alpha 64.228
_cell_angle_beta 88.743
_cell_angle_gamma 76.382
_space_group_name_H-M_alt 'P 1'
_space_group_name_Hall 'P 1'
loop_
    _symmetry_equiv_pos_as_xyz
    x,y,z
loop_
    _atom_site_label
    _atom_site_type_symbol
    _atom_site_fract_x
    _atom_site_fract_y
    _atom_site_fract_z
    _atom_site_occupancy
    C0      C    0.18441   0.22544   0.22480   1.000
    C1      C    0.18174   0.22657   0.72550   1.000
    C2      C    0.18442   0.72545   0.22481   1.000
    C3      C    0.18173   0.72658   0.72550   1.000
    C4      C    0.68443   0.22544   0.22481   1.000
    C5      C    0.68174   0.22658   0.72550   1.000
    C6      C    0.68443   0.72545   0.22480   1.000
    C7      C    0.68175   0.72658   0.72550   1.000
    C8      C    0.31826   0.27340   0.27448   1.000
    C9      C    0.31559   0.27453   0.77517   1.000
    C10     C    0.31826   0.77340   0.27448   1.000
    C11     C    0.31558   0.77454   0.77510   1.000
    C12     C    0.81828   0.27340   0.27448   1.000
    C13     C    0.81560   0.27453   0.77517   1.000
    C14     C    0.81827   0.77340   0.27448   1.000
    C15     C    0.81561   0.77453   0.77517   1.000
    C16     C    0.04688   0.09723   0.27779   1.000
    C17     C    0.04452   0.09850   0.77840   1.000
    C18     C    0.04688   0.59724   0.27779   1.000
    C19     C    0.04453   0.59851   0.77840   1.000
    C20     C    0.54689   0.09724   0.27778   1.000
    C21     C    0.54454   0.09850   0.77840   1.000
    C22     C    0.54689   0.59725   0.27779   1.000
    C23     C    0.54453   0.59851   0.77840   1.000
    C24     C    0.34626   0.02045   0.21539   1.000
    C25     C    0.34391   0.02171   0.71601   1.000
    C26     C    0.34627   0.52045   0.21539   1.000
    C27     C    0.34391   0.52172   0.71600   1.000
    C28     C    0.84628   0.02045   0.21539   1.000
    C29     C    0.84392   0.02171   0.71600   1.000
    C30     C    0.84628   0.52046   0.21539   1.000
    C31     C    0.84393   0.52172   0.71600   1.000
    C32     C    0.20938   0.14220   0.13751   1.000
    C33     C    0.20795   0.14280   0.63880   1.000
    C34     C    0.20939   0.64221   0.13751   1.000
    C35     C    0.20793   0.64279   0.63887   1.000
    C36     C    0.70942   0.14222   0.13750   1.000
    C37     C    0.70796   0.14280   0.63886   1.000
    C38     C    0.70941   0.64223   0.13750   1.000
    C39     C    0.70796   0.64279   0.63887   1.000
    C40     C    0.13922   0.15791   0.03130   1.000
    C41     C    0.13923   0.15795   0.53237   1.000
    C42     C    0.13924   0.65792   0.03131   1.000
    C43     C    0.13921   0.65794   0.53230   1.000
    C44     C    0.63927   0.15794   0.03130   1.000
    C45     C    0.63924   0.15796   0.53237   1.000
    C46     C    0.63926   0.65794   0.03130   1.000
    C47     C    0.63923   0.65794   0.53238   1.000
    C48     C    0.14692   0.01530   0.40861   1.000
    C49     C    0.14605   0.01508   0.90924   1.000
    C50     C    0.14693   0.51531   0.40861   1.000
    C51     C    0.14604   0.51509   0.90924   1.000
    C52     C    0.64694   0.01530   0.40861   1.000
    C53     C    0.64606   0.01509   0.90924   1.000
    C54     C    0.64694   0.51531   0.40861   1.000
    C55     C    0.64606   0.51509   0.90924   1.000
    C56     C    0.99761   0.29600   0.16272   1.000
    C57     C    0.99499   0.29691   0.66237   1.000
    C58     C    0.99761   0.79599   0.16273   1.000
    C59     C    0.99499   0.79694   0.66236   1.000
    C60     C    0.49761   0.29597   0.16273   1.000
    C61     C    0.49500   0.29692   0.66237   1.000
    C62     C    0.49761   0.79598   0.16273   1.000
    C63     C    0.49501   0.79693   0.66237   1.000
    C64     C    0.33283   0.10146   0.47603   1.000
    C65     C    0.33136   0.10254   0.97578   1.000
    C66     C    0.33284   0.60146   0.47603   1.000
    C67     C    0.33136   0.60255   0.97570   1.000
    C68     C    0.83285   0.10145   0.47603   1.000
    C69     C    0.83137   0.10254   0.97578   1.000
    C70     C    0.83284   0.60147   0.47603   1.000
    C71     C    0.83137   0.60255   0.97570   1.000
    C72     C    0.41850   0.31996   0.05770   1.000
    C73     C    0.41730   0.32045   0.55692   1.000
    C74     C    0.41849   0.81997   0.05770   1.000
    C75     C    0.41731   0.82046   0.55692   1.000
    C76     C    0.91852   0.32000   0.05768   1.000
    C77     C    0.91732   0.32045   0.55690   1.000
    C78     C    0.91852   0.81998   0.05769   1.000
    C79     C    0.91732   0.82047   0.55690   1.000
    C80     C    0.45547   0.40148   0.22156   1.000
    C81     C    0.45313   0.40273   0.72219   1.000
    C82     C    0.45546   0.90149   0.22156   1.000
    C83     C    0.45313   0.90273   0.72219   1.000
    C84     C    0.95548   0.40148   0.22150   1.000
    C85     C    0.95315   0.40272   0.72210   1.000
    C86     C    0.95548   0.90149   0.22156   1.000
    C87     C    0.95314   0.90274   0.72219   1.000
    C88     C    0.15609   0.47825   0.28390   1.000
    C89     C    0.15373   0.47953   0.78458   1.000
    C90     C    0.15609   0.97825   0.28397   1.000
    C91     C    0.15373   0.97954   0.78450   1.000
    C92     C    0.65610   0.47825   0.28396   1.000
    C93     C    0.65374   0.47954   0.78457   1.000
    C94     C    0.65610   0.97826   0.28396   1.000
    C95     C    0.65375   0.97954   0.78457   1.000
    C96     C    0.29206   0.35720   0.36109   1.000
    C97     C    0.29062   0.35774   0.86247   1.000
    C98     C    0.29206   0.85719   0.36110   1.000
    C99     C    0.29061   0.85774   0.86247   1.000
    C100    C    0.79208   0.35720   0.36109   1.000
    C101    C    0.79061   0.35772   0.86240   1.000
    C102    C    0.79207   0.85719   0.36110   1.000
    C103    C    0.79063   0.85773   0.86248   1.000
    C104    C    0.36079   0.34206   0.46750   1.000
    C105    C    0.36077   0.34203   0.96867   1.000
    C106    C    0.36078   0.84204   0.46759   1.000
    C107    C    0.36076   0.84203   0.96867   1.000
    C108    C    0.86081   0.34206   0.46758   1.000
    C109    C    0.86076   0.34200   0.96869   1.000
    C110    C    0.86079   0.84204   0.46759   1.000
    C111    C    0.86077   0.84201   0.96868   1.000
    C112    C    0.35396   0.48488   0.09073   1.000
    C113    C    0.35308   0.48467   0.59136   1.000
    C114    C    0.35396   0.98488   0.09074   1.000
    C115    C    0.35307   0.98468   0.59136   1.000
    C116    C    0.85397   0.48488   0.09070   1.000
    C117    C    0.85309   0.48467   0.59136   1.000
    C118    C    0.85397   0.98489   0.09073   1.000
    C119    C    0.85309   0.98467   0.59136   1.000
    C120    C    0.50500   0.20305   0.33760   1.000
    C121    C    0.50241   0.20399   0.83724   1.000
    C122    C    0.50501   0.70306   0.33760   1.000
    C123    C    0.50241   0.70400   0.83720   1.000
    C124    C    0.00000   0.20305   0.33760   1.000
    C125    C    0.00000   0.20401   0.83722   1.000
    C126    C    0.00000   0.70307   0.33760   1.000
    C127    C    0.00000   0.70400   0.83723   1.000
    C128    C    0.16864   0.39742   0.02420   1.000
    C129    C    0.16717   0.39851   0.52390   1.000
    C130    C    0.16864   0.89743   0.02420   1.000
    C131    C    0.16717   0.89852   0.52394   1.000
    C132    C    0.66866   0.39742   0.02420   1.000
    C133    C    0.66718   0.39851   0.52390   1.000
    C134    C    0.66866   0.89743   0.02419   1.000
    C135    C    0.66719   0.89852   0.52394   1.000
    C136    C    0.08270   0.17952   0.44305   1.000
    C137    C    0.08153   0.18003   0.94225   1.000
    C138    C    0.08270   0.67954   0.44304   1.000
    C139    C    0.08152   0.68001   0.94227   1.000
    C140    C    0.58271   0.17952   0.44305   1.000
    C141    C    0.58154   0.18000   0.94227   1.000
    C142    C    0.58271   0.67953   0.44305   1.000
    C143    C    0.58152   0.68000   0.94227   1.000
    C144    C    0.22872   0.13477   0.36643   1.000
    C145    C    0.22624   0.13569   0.86688   1.000
    C146    C    0.22874   0.63476   0.36643   1.000
    C147    C    0.22626   0.63569   0.86687   1.000
    C148    C    0.72874   0.13477   0.36643   1.000
    C149    C    0.72626   0.13568   0.86688   1.000
    C150    C    0.72874   0.63478   0.36643   1.000
    C151    C    0.72628   0.63568   0.86687   1.000
    C152    C    0.23845   0.06552   0.43568   1.000
    C153    C    0.23713   0.06599   0.93590   1.000
    C154    C    0.23843   0.56554   0.43569   1.000
    C155    C    0.23710   0.56601   0.93593   1.000
    C156    C    0.73847   0.06552   0.43568   1.000
    C157    C    0.73712   0.06600   0.93593   1.000
    C158    C    0.73846   0.56553   0.43568   1.000
    C159    C    0.73711   0.56601   0.93593   1.000
    C160    C    0.19182   0.00815   0.44890   1.000
    C161    C    0.19133   0.00802   0.94930   1.000
    C162    C    0.19184   0.50814   0.44894   1.000
    C163    C    0.19135   0.50802   0.94929   1.000
    C164    C    0.69184   0.00815   0.44890   1.000
    C165    C    0.69136   0.00802   0.94929   1.000
    C166    C    0.69184   0.50816   0.44894   1.000
    C167    C    0.69137   0.50802   0.94929   1.000
    C168    C    0.29665   0.05673   0.48729   1.000
    C169    C    0.29585   0.05732   0.98717   1.000
    C170    C    0.29668   0.55672   0.48728   1.000
    C171    C    0.29587   0.55732   0.98715   1.000
    C172    C    0.79667   0.05672   0.48729   1.000
    C173    C    0.79587   0.05731   0.98716   1.000
    C174    C    0.79667   0.55674   0.48720   1.000
    C175    C    0.79588   0.55732   0.98715   1.000
    C176    C    0.37339   0.13777   0.24243   1.000
    C177    C    0.37113   0.13898   0.74323   1.000
    C178    C    0.37339   0.63777   0.24244   1.000
    C179    C    0.37111   0.63900   0.74322   1.000
    C180    C    0.87341   0.13776   0.24245   1.000
    C181    C    0.87113   0.13899   0.74320   1.000
    C182    C    0.87340   0.63777   0.24244   1.000
    C183    C    0.87114   0.63899   0.74322   1.000
    C184    C    0.02709   0.05434   0.26545   1.000
    C185    C    0.02473   0.05563   0.76604   1.000
    C186    C    0.02709   0.55436   0.26544   1.000
    C187    C    0.02474   0.55563   0.76605   1.000
    C188    C    0.52710   0.05435   0.26543   1.000
    C189    C    0.52475   0.05562   0.76600   1.000
    C190    C    0.52711   0.55436   0.26544   1.000
    C191    C    0.52474   0.55564   0.76605   1.000
    C192    C    0.41434   0.01103   0.23004   1.000
    C193    C    0.41200   0.01229   0.73066   1.000
    C194    C    0.41435   0.51103   0.23005   1.000
    C195    C    0.41199   0.51231   0.73065   1.000
    C196    C    0.91436   0.01102   0.23005   1.000
    C197    C    0.91201   0.01230   0.73065   1.000
    C198    C    0.91436   0.51103   0.23000   1.000
    C199    C    0.91202   0.51231   0.73065   1.000
    C200    C    0.14453   0.18055   0.11760   1.000
    C201    C    0.14317   0.18107   0.61857   1.000
    C202    C    0.14454   0.68055   0.11760   1.000
    C203    C    0.14316   0.68107   0.61858   1.000
    C204    C    0.64456   0.18056   0.11767   1.000
    C205    C    0.64318   0.18108   0.61857   1.000
    C206    C    0.64455   0.68057   0.11760   1.000
    C207    C    0.64318   0.68107   0.61858   1.000
    C208    C    0.10444   0.19052   0.05783   1.000
    C209    C    0.10389   0.19076   0.55855   1.000
    C210    C    0.10445   0.69053   0.05783   1.000
    C211    C    0.10388   0.69075   0.55856   1.000
    C212    C    0.60447   0.19054   0.05782   1.000
    C213    C    0.60390   0.19076   0.55855   1.000
    C214    C    0.60446   0.69054   0.05782   1.000
    C215    C    0.60390   0.69075   0.55856   1.000
    C216    C    0.02181   0.24253   0.03264   1.000
    C217    C    0.02136   0.24271   0.53275   1.000
    C218    C    0.02181   0.74253   0.03264   1.000
    C219    C    0.02135   0.74272   0.53275   1.000
    C220    C    0.52183   0.24253   0.03264   1.000
    C221    C    0.52137   0.24272   0.53274   1.000
    C222    C    0.52182   0.74253   0.03264   1.000
    C223    C    0.52137   0.74271   0.53275   1.000
    C224    C    0.48279   0.27970   0.07242   1.000
    C225    C    0.48158   0.28017   0.57213   1.000
    C226    C    0.48278   0.77970   0.07242   1.000
    C227    C    0.48158   0.78017   0.57213   1.000
    C228    C    0.98281   0.27972   0.07241   1.000
    C229    C    0.98160   0.28016   0.57213   1.000
    C230    C    0.98281   0.77971   0.07242   1.000
    C231    C    0.98159   0.78018   0.57213   1.000
    C232    C    0.02671   0.26671   0.13197   1.000
    C233    C    0.02472   0.26745   0.63191   1.000
    C234    C    0.02671   0.76671   0.13198   1.000
    C235    C    0.02471   0.76747   0.63191   1.000
    C236    C    0.52672   0.26670   0.13198   1.000
    C237    C    0.52473   0.26745   0.63191   1.000
    C238    C    0.52672   0.76670   0.13198   1.000
    C239    C    0.52473   0.76746   0.63191   1.000
    C240    C    0.43965   0.06667   0.24562   1.000
    C241    C    0.43730   0.06792   0.74628   1.000
    C242    C    0.43966   0.56668   0.24562   1.000
    C243    C    0.43729   0.56793   0.74628   1.000
    C244    C    0.93967   0.06668   0.24561   1.000
    C245    C    0.93730   0.06792   0.74629   1.000
    C246    C    0.93967   0.56668   0.24562   1.000
    C247    C    0.93731   0.56793   0.74628   1.000
    C248    C    0.27374   0.36429   0.13310   1.000
    C249    C    0.27127   0.36521   0.63355   1.000
    C250    C    0.27376   0.86428   0.13309   1.000
    C251    C    0.27128   0.86521   0.63354   1.000
    C252    C    0.77375   0.36429   0.13310   1.000
    C253    C    0.77129   0.36521   0.63354   1.000
    C254    C    0.77376   0.86429   0.13310   1.000
    C255    C    0.77130   0.86521   0.63354   1.000
    C256    C    0.26290   0.43396   0.06404   1.000
    C257    C    0.26158   0.43443   0.56429   1.000
    C258    C    0.26287   0.93398   0.06405   1.000
    C259    C    0.26155   0.93446   0.56430   1.000
    C260    C    0.76292   0.43396   0.06404   1.000
    C261    C    0.76157   0.43445   0.56400   1.000
    C262    C    0.76290   0.93397   0.06404   1.000
    C263    C    0.76157   0.93446   0.56430   1.000
    C264    C    0.30865   0.49195   0.05068   1.000
    C265    C    0.30817   0.49183   0.55103   1.000
    C266    C    0.30867   0.99194   0.05068   1.000
    C267    C    0.30818   0.99183   0.55103   1.000
    C268    C    0.80866   0.49196   0.05068   1.000
    C269    C    0.80819   0.49182   0.55103   1.000
    C270    C    0.80867   0.99196   0.05068   1.000
    C271    C    0.80820   0.99182   0.55103   1.000
    C272    C    0.20413   0.44266   0.01282   1.000
    C273    C    0.20333   0.44325   0.51269   1.000
    C274    C    0.20416   0.94265   0.01281   1.000
    C275    C    0.20334   0.94325   0.51260   1.000
    C276    C    0.70415   0.44266   0.01282   1.000
    C277    C    0.70336   0.44324   0.51269   1.000
    C278    C    0.70416   0.94266   0.01281   1.000
    C279    C    0.70337   0.94325   0.51268   1.000
    C280    C    0.12886   0.36098   0.25674   1.000
    C281    C    0.12661   0.36220   0.75754   1.000
    C282    C    0.12887   0.86099   0.25674   1.000
    C283    C    0.12660   0.86221   0.75754   1.000
    C284    C    0.62889   0.36098   0.25674   1.000
    C285    C    0.62662   0.36220   0.75754   1.000
    C286    C    0.62887   0.86098   0.25675   1.000
    C287    C    0.62663   0.86221   0.75753   1.000
    C288    C    0.47526   0.44435   0.23390   1.000
    C289    C    0.47291   0.44561   0.73453   1.000
    C290    C    0.47525   0.94436   0.23392   1.000
    C291    C    0.47292   0.94563   0.73453   1.000
    C292    C    0.97527   0.44435   0.23391   1.000
    C293    C    0.97293   0.44561   0.73453   1.000
    C294    C    0.97527   0.94436   0.23391   1.000
    C295    C    0.97292   0.94562   0.73453   1.000
    C296    C    0.08800   0.48766   0.26931   1.000
    C297    C    0.08565   0.48895   0.76992   1.000
    C298    C    0.08801   0.98768   0.26931   1.000
    C299    C    0.08564   0.98896   0.76993   1.000
    C300    C    0.58802   0.48766   0.26931   1.000
    C301    C    0.58566   0.48895   0.76992   1.000
    C302    C    0.58801   0.98767   0.26931   1.000
    C303    C    0.58567   0.98896   0.76991   1.000
    C304    C    0.35683   0.31892   0.38130   1.000
    C305    C    0.35547   0.31940   0.88230   1.000
    C306    C    0.35683   0.81892   0.38139   1.000
    C307    C    0.35547   0.81941   0.88231   1.000
    C308    C    0.85685   0.31892   0.38139   1.000
    C309    C    0.85547   0.31939   0.88231   1.000
    C310    C    0.85684   0.81892   0.38139   1.000
    C311    C    0.85548   0.81940   0.88231   1.000
    C312    C    0.39612   0.30924   0.44140   1.000
    C313    C    0.39557   0.30943   0.94210   1.000
    C314    C    0.39612   0.80924   0.44141   1.000
    C315    C    0.39556   0.80943   0.94215   1.000
    C316    C    0.89614   0.30924   0.44140   1.000
    C317    C    0.89556   0.30941   0.94215   1.000
    C318    C    0.89612   0.80924   0.44141   1.000
    C319    C    0.89557   0.80942   0.94215   1.000
    C320    C    0.47865   0.25728   0.46721   1.000
    C321    C    0.47821   0.25743   0.96733   1.000
    C322    C    0.47865   0.75728   0.46722   1.000
    C323    C    0.47820   0.75743   0.96733   1.000
    C324    C    0.97867   0.25728   0.46722   1.000
    C325    C    0.97821   0.25743   0.96733   1.000
    C326    C    0.97866   0.75728   0.46722   1.000
    C327    C    0.97821   0.75743   0.96734   1.000
    C328    C    0.01842   0.21981   0.42784   1.000
    C329    C    0.01723   0.22029   0.92754   1.000
    C330    C    0.01842   0.71983   0.42780   1.000
    C331    C    0.01723   0.72027   0.92755   1.000
    C332    C    0.51843   0.21982   0.42783   1.000
    C333    C    0.51724   0.22027   0.92755   1.000
    C334    C    0.51843   0.71982   0.42784   1.000
    C335    C    0.51723   0.72027   0.92755   1.000
    C336    C    0.47528   0.23253   0.36806   1.000
    C337    C    0.47331   0.23326   0.86799   1.000
    C338    C    0.47528   0.73253   0.36806   1.000
    C339    C    0.47330   0.73327   0.86799   1.000
    C340    C    0.97530   0.23252   0.36806   1.000
    C341    C    0.97332   0.23328   0.86798   1.000
    C342    C    0.97529   0.73254   0.36800   1.000
    C343    C    0.97332   0.73327   0.86799   1.000
    C344    C    0.06270   0.43205   0.25369   1.000
    C345    C    0.06035   0.43329   0.75435   1.000
    C346    C    0.06270   0.93205   0.25369   1.000
    C347    C    0.06034   0.93331   0.75434   1.000
    C348    C    0.56271   0.43205   0.25369   1.000
    C349    C    0.56036   0.43330   0.75435   1.000
    C350    C    0.56271   0.93206   0.25368   1.000
    C351    C    0.56036   0.93330   0.75436   1.000
    C352    C    0.10716   0.21864   0.15415   1.000
    C353    C    0.10511   0.21941   0.65468   1.000
    C354    C    0.10717   0.71864   0.15416   1.000
    C355    C    0.10510   0.71942   0.65468   1.000
    C356    C    0.60719   0.21864   0.15415   1.000
    C357    C    0.60511   0.21942   0.65467   1.000
    C358    C    0.60718   0.71864   0.15415   1.000
    C359    C    0.60512   0.71942   0.65468   1.000
    C360    C    0.39489   0.28057   0.34529   1.000
    C361    C    0.39284   0.28132   0.84582   1.000
    C362    C    0.39490   0.78057   0.34529   1.000
    C363    C    0.39284   0.78133   0.84582   1.000
    C364    C    0.89491   0.28057   0.34529   1.000
    C365    C    0.89285   0.28133   0.84582   1.000
    C366    C    0.89491   0.78057   0.34529   1.000
    C367    C    0.89286   0.78133   0.84582   1.000
    C368    C    0.17303   0.14167   0.32169   1.000
    C369    C    0.17053   0.14235   0.82226   1.000
    C370    C    0.17303   0.64168   0.32169   1.000
    C371    C    0.17052   0.64237   0.82226   1.000
    C372    C    0.67304   0.14167   0.32169   1.000
    C373    C    0.67053   0.14236   0.82220   1.000
    C374    C    0.67304   0.64168   0.32160   1.000
    C375    C    0.67054   0.64237   0.82220   1.000
    C376    C    0.27758   0.18082   0.35756   1.000
    C377    C    0.27432   0.18237   0.85803   1.000
    C378    C    0.27758   0.68083   0.35756   1.000
    C379    C    0.27431   0.68238   0.85803   1.000
    C380    C    0.77759   0.18082   0.35756   1.000
    C381    C    0.77433   0.18238   0.85803   1.000
    C382    C    0.77759   0.68083   0.35756   1.000
    C383    C    0.77433   0.68238   0.85803   1.000
    C384    C    0.29521   0.14505   0.22414   1.000
    C385    C    0.29291   0.14645   0.72480   1.000
    C386    C    0.29522   0.64505   0.22414   1.000
    C387    C    0.29289   0.64645   0.72488   1.000
    C388    C    0.79523   0.14505   0.22414   1.000
    C389    C    0.79291   0.14645   0.72488   1.000
    C390    C    0.79523   0.64506   0.22414   1.000
    C391    C    0.79292   0.64645   0.72488   1.000
    C392    C    0.40005   0.18508   0.25890   1.000
    C393    C    0.39790   0.18610   0.75988   1.000
    C394    C    0.40005   0.68509   0.25890   1.000
    C395    C    0.39788   0.68611   0.75988   1.000
    C396    C    0.90007   0.18508   0.25890   1.000
    C397    C    0.89790   0.18610   0.75988   1.000
    C398    C    0.90007   0.68509   0.25890   1.000
    C399    C    0.89791   0.68611   0.75988   1.000
    C400    C    0.32947   0.35761   0.17772   1.000
    C401    C    0.32698   0.35830   0.67829   1.000
    C402    C    0.32947   0.85761   0.17772   1.000
    C403    C    0.32697   0.85832   0.67829   1.000
    C404    C    0.82949   0.35761   0.17772   1.000
    C405    C    0.82699   0.35831   0.67829   1.000
    C406    C    0.82949   0.85762   0.17772   1.000
    C407    C    0.82699   0.85831   0.67829   1.000
    C408    C    0.22568   0.31759   0.14194   1.000
    C409    C    0.22244   0.31914   0.64242   1.000
    C410    C    0.22568   0.81760   0.14194   1.000
    C411    C    0.22243   0.81915   0.64242   1.000
    C412    C    0.72570   0.31759   0.14194   1.000
    C413    C    0.72245   0.31914   0.64242   1.000
    C414    C    0.72569   0.81760   0.14194   1.000
    C415    C    0.72245   0.81915   0.64242   1.000
    C416    C    0.20708   0.35352   0.27509   1.000
    C417    C    0.20479   0.35492   0.77584   1.000
    C418    C    0.20709   0.85352   0.27509   1.000
    C419    C    0.20478   0.85493   0.77580   1.000
    C420    C    0.70710   0.35352   0.27509   1.000
    C421    C    0.70480   0.35492   0.77580   1.000
    C422    C    0.70710   0.85352   0.27500   1.000
    C423    C    0.70480   0.85492   0.77584   1.000
    C424    C    0.10209   0.31386   0.24000   1.000
    C425    C    0.09995   0.31489   0.74107   1.000
    C426    C    0.10210   0.81387   0.24009   1.000
    C427    C    0.09995   0.81490   0.74107   1.000
    C428    C    0.60211   0.31386   0.24009   1.000
    C429    C    0.59996   0.31489   0.74107   1.000
    C430    C    0.60210   0.81387   0.24008   1.000
    C431    C    0.59997   0.81490   0.74107   1.000
    O432    O    0.18640   0.92004   0.01851   1.000
    O433    O    0.23352   0.93832   0.03843   1.000
    O434    O    0.19774   0.97534   0.98106   1.000
    O435    O    0.68641   0.92005   0.01850   1.000
    O436    O    0.73353   0.93832   0.03843   1.000
    O437    O    0.69776   0.97534   0.98105   1.000
    O438    O    0.18639   0.42004   0.01851   1.000
    O439    O    0.23352   0.43831   0.03843   1.000
    O440    O    0.19774   0.47534   0.98106   1.000
    O441    O    0.68640   0.42004   0.01851   1.000
    O442    O    0.73354   0.43831   0.03843   1.000
    O443    O    0.69776   0.47534   0.98106   1.000
    O444    O    0.12183   0.17422   0.04457   1.000
    O445    O    0.62187   0.17424   0.04456   1.000
    O446    O    0.62186   0.67424   0.04456   1.000
    O447    O    0.12184   0.67422   0.04457   1.000
    O448    O    0.56314   0.71654   0.04523   1.000
    O449    O    0.50230   0.76112   0.05253   1.000
    O450    O    0.50001   0.74998   0.99999   1.000
    O451    O    0.56315   0.21653   0.04523   1.000
    O452    O    0.50231   0.26111   0.05253   1.000
    O453    O    0.50002   0.24998   0.99999   1.000
    O454    O    0.06312   0.21653   0.04524   1.000
    O455    O    0.00231   0.26112   0.05253   1.000
    O456    O    0.00001   0.24998   0.99999   1.000
    O457    O    0.06313   0.71653   0.04524   1.000
    O458    O    0.00231   0.76112   0.05253   1.000
    O459    O    0.00001   0.74998   0.99999   1.000
    O460    O    0.28578   0.46295   0.05736   1.000
    O461    O    0.33130   0.48841   0.07071   1.000
    O462    O    0.30226   0.52463   0.01891   1.000
    O463    O    0.28577   0.96296   0.05736   1.000
    O464    O    0.33132   0.98841   0.07071   1.000
    O465    O    0.30226   0.02463   0.01893   1.000
    O466    O    0.78579   0.46296   0.05736   1.000
    O467    O    0.83132   0.48842   0.07069   1.000
    O468    O    0.80227   0.52464   0.01891   1.000
    O469    O    0.78579   0.96297   0.05736   1.000
    O470    O    0.83132   0.98842   0.07071   1.000
    O471    O    0.80227   0.02463   0.01892   1.000
    O472    O    0.95067   0.29986   0.06505   1.000
    O473    O    0.95066   0.79984   0.06506   1.000
    O474    O    0.45064   0.79983   0.06506   1.000
    O475    O    0.45065   0.29983   0.06506   1.000
    O476    O    0.62452   0.18555   0.08774   1.000
    O477    O    0.62451   0.68555   0.08771   1.000
    O478    O    0.12449   0.68554   0.08771   1.000
    O479    O    0.12448   0.18553   0.08771   1.000
    O480    O    0.26832   0.39912   0.09857   1.000
    O481    O    0.76834   0.39912   0.09857   1.000
    O482    O    0.76833   0.89913   0.09857   1.000
    O483    O    0.26832   0.89913   0.09857   1.000
    O484    O    0.00476   0.27322   0.10219   1.000
    O485    O    0.50476   0.27320   0.10220   1.000
    O486    O    0.50475   0.77320   0.10220   1.000
    O487    O    0.00476   0.77321   0.10220   1.000
    O488    O    0.67698   0.66140   0.12755   1.000
    O489    O    0.62587   0.69960   0.13587   1.000
    O490    O    0.17696   0.66138   0.12756   1.000
    O491    O    0.12585   0.69960   0.13588   1.000
    O492    O    0.17695   0.16137   0.12756   1.000
    O493    O    0.12585   0.19959   0.13587   1.000
    O494    O    0.67699   0.16139   0.12759   1.000
    O495    O    0.62587   0.19960   0.13591   1.000
    O496    O    0.06694   0.24268   0.14306   1.000
    O497    O    0.01216   0.28136   0.14735   1.000
    O498    O    0.56695   0.74267   0.14306   1.000
    O499    O    0.51216   0.78134   0.14736   1.000
    O500    O    0.56696   0.24267   0.14306   1.000
    O501    O    0.51217   0.28133   0.14736   1.000
    O502    O    0.06694   0.74267   0.14307   1.000
    O503    O    0.01216   0.78135   0.14736   1.000
    O504    O    0.24972   0.84094   0.13751   1.000
    O505    O    0.30162   0.86095   0.15541   1.000
    O506    O    0.24971   0.34094   0.13752   1.000
    O507    O    0.30161   0.36095   0.15541   1.000
    O508    O    0.74973   0.34094   0.13752   1.000
    O509    O    0.80162   0.36095   0.15541   1.000
    O510    O    0.74973   0.84094   0.13752   1.000
    O511    O    0.80162   0.86095   0.15541   1.000
    O512    O    0.20505   0.77152   0.18338   1.000
    O513    O    0.70507   0.27151   0.18338   1.000
    O514    O    0.20505   0.27152   0.18337   1.000
    O515    O    0.70506   0.77152   0.18337   1.000
    O516    O    0.14579   0.22204   0.18947   1.000
    O517    O    0.64581   0.22204   0.18948   1.000
    O518    O    0.64580   0.72205   0.18947   1.000
    O519    O    0.14579   0.72204   0.18949   1.000
    O520    O    0.32387   0.31550   0.22610   1.000
    O521    O    0.82389   0.31550   0.22610   1.000
    O522    O    0.32387   0.81551   0.22610   1.000
    O523    O    0.82388   0.81551   0.22610   1.000
    O524    O    0.38030   0.01574   0.22271   1.000
    O525    O    0.38031   0.51574   0.22272   1.000
    O526    O    0.88032   0.01573   0.22272   1.000
    O527    O    0.88032   0.51575   0.22270   1.000
    O528    O    0.96537   0.42291   0.22771   1.000
    O529    O    0.96538   0.92293   0.22774   1.000
    O530    O    0.46535   0.92292   0.22774   1.000
    O531    O    0.46536   0.42291   0.22773   1.000
    O532    O    0.73983   0.68525   0.22447   1.000
    O533    O    0.83432   0.64141   0.23329   1.000
    O534    O    0.73983   0.18524   0.22448   1.000
    O535    O    0.83432   0.14141   0.23330   1.000
    O536    O    0.23981   0.18524   0.22447   1.000
    O537    O    0.33430   0.14141   0.23329   1.000
    O538    O    0.23982   0.68525   0.22448   1.000
    O539    O    0.33430   0.64141   0.23329   1.000
    O540    O    0.64326   0.76966   0.23244   1.000
    O541    O    0.67873   0.68356   0.27320   1.000
    O542    O    0.14325   0.26965   0.23240   1.000
    O543    O    0.17872   0.18356   0.27324   1.000
    O544    O    0.64327   0.26965   0.23245   1.000
    O545    O    0.67874   0.18355   0.27325   1.000
    O546    O    0.14326   0.76966   0.23245   1.000
    O547    O    0.17872   0.68356   0.27325   1.000
    O548    O    0.94481   0.47769   0.23196   1.000
    O549    O    0.92701   0.53886   0.23781   1.000
    O550    O    0.44480   0.97769   0.23198   1.000
    O551    O    0.42700   0.03885   0.23783   1.000
    O552    O    0.94482   0.97769   0.23198   1.000
    O553    O    0.92702   0.03885   0.23783   1.000
    O554    O    0.44481   0.47769   0.23197   1.000
    O555    O    0.42700   0.53886   0.23783   1.000
    O556    O    0.51899   0.43820   0.24380   1.000
    O557    O    0.01899   0.93821   0.24380   1.000
    O558    O    0.01898   0.43820   0.24380   1.000
    O559    O    0.51898   0.93821   0.24380   1.000
    O560    O    0.11548   0.33742   0.24837   1.000
    O561    O    0.61549   0.83743   0.24841   1.000
    O562    O    0.61550   0.33742   0.24841   1.000
    O563    O    0.11548   0.83743   0.24841   1.000
    O564    O    0.40652   0.10222   0.24403   1.000
    O565    O    0.38672   0.16142   0.25066   1.000
    O566    O    0.40653   0.60223   0.24403   1.000
    O567    O    0.38672   0.66143   0.25067   1.000
    O568    O    0.90654   0.60223   0.24403   1.000
    O569    O    0.88674   0.66143   0.25067   1.000
    O570    O    0.90654   0.10222   0.24403   1.000
    O571    O    0.88674   0.16142   0.25067   1.000
    O572    O    0.98338   0.06051   0.25553   1.000
    O573    O    0.48338   0.06051   0.25553   1.000
    O574    O    0.98338   0.56052   0.25553   1.000
    O575    O    0.48338   0.56052   0.25553   1.000
    O576    O    0.59579   0.89652   0.25522   1.000
    O577    O    0.57536   0.95987   0.26150   1.000
    O578    O    0.09578   0.39651   0.25522   1.000
    O579    O    0.07535   0.45986   0.26150   1.000
    O580    O    0.59580   0.39651   0.25522   1.000
    O581    O    0.57537   0.45986   0.26150   1.000
    O582    O    0.09578   0.89652   0.25522   1.000
    O583    O    0.07535   0.95986   0.26150   1.000
    O584    O    0.66799   0.35725   0.26592   1.000
    O585    O    0.16797   0.35725   0.26592   1.000
    O586    O    0.16798   0.85726   0.26592   1.000
    O587    O    0.66798   0.85725   0.26588   1.000
    O588    O    0.35916   0.72924   0.26669   1.000
    O589    O    0.85918   0.22924   0.26669   1.000
    O590    O    0.85917   0.72925   0.26669   1.000
    O591    O    0.35916   0.22924   0.26669   1.000
    O592    O    0.55756   0.02101   0.26737   1.000
    O593    O    0.53700   0.07579   0.27161   1.000
    O594    O    0.55756   0.52101   0.26738   1.000
    O595    O    0.53700   0.57580   0.27161   1.000
    O596    O    0.05754   0.52101   0.26738   1.000
    O597    O    0.03698   0.57580   0.27161   1.000
    O598    O    0.05755   0.02101   0.26738   1.000
    O599    O    0.03699   0.07579   0.27162   1.000
    O600    O    0.62206   0.48296   0.27663   1.000
    O601    O    0.12204   0.48295   0.27660   1.000
    O602    O    0.12205   0.98296   0.27664   1.000
    O603    O    0.62206   0.98296   0.27663   1.000
    O604    O    0.26268   0.81346   0.27478   1.000
    O605    O    0.35658   0.77699   0.30989   1.000
    O606    O    0.29792   0.72712   0.31602   1.000
    O607    O    0.76268   0.81346   0.27474   1.000
    O608    O    0.85659   0.77699   0.30989   1.000
    O609    O    0.79793   0.72712   0.31602   1.000
    O610    O    0.76269   0.31346   0.27478   1.000
    O611    O    0.85660   0.27698   0.30989   1.000
    O612    O    0.79794   0.22711   0.31602   1.000
    O613    O    0.26267   0.31346   0.27478   1.000
    O614    O    0.35658   0.27698   0.30989   1.000
    O615    O    0.29792   0.22711   0.31602   1.000
    O616    O    0.70089   0.63823   0.34402   1.000
    O617    O    0.20087   0.13822   0.34406   1.000
    O618    O    0.20088   0.63822   0.34406   1.000
    O619    O    0.70089   0.13822   0.34406   1.000
    O620    O    0.49014   0.21779   0.35283   1.000
    O621    O    0.98765   0.71780   0.35280   1.000
    O622    O    0.98765   0.21778   0.35283   1.000
    O623    O    0.49015   0.71780   0.35283   1.000
    O624    O    0.93510   0.75656   0.35664   1.000
    O625    O    0.87587   0.79975   0.36334   1.000
    O626    O    0.93511   0.25655   0.35668   1.000
    O627    O    0.87588   0.29974   0.36334   1.000
    O628    O    0.43509   0.75655   0.35668   1.000
    O629    O    0.37586   0.79974   0.36334   1.000
    O630    O    0.43509   0.25655   0.35668   1.000
    O631    O    0.37586   0.29974   0.36329   1.000
    O632    O    0.25315   0.15779   0.36200   1.000
    O633    O    0.25316   0.65780   0.36200   1.000
    O634    O    0.75317   0.15779   0.36200   1.000
    O635    O    0.75316   0.65780   0.36200   1.000
    O636    O    0.82447   0.33806   0.37124   1.000
    O637    O    0.32445   0.33806   0.37119   1.000
    O638    O    0.82445   0.83805   0.37125   1.000
    O639    O    0.32445   0.83805   0.37125   1.000
    O640    O    0.73360   0.60015   0.40105   1.000
    O641    O    0.73360   0.10014   0.40105   1.000
    O642    O    0.23358   0.60015   0.40106   1.000
    O643    O    0.23358   0.10014   0.40105   1.000
    O644    O    0.99686   0.72618   0.39790   1.000
    O645    O    0.49686   0.72618   0.39795   1.000
    O646    O    0.99686   0.22617   0.39795   1.000
    O647    O    0.49686   0.22617   0.39794   1.000
    O648    O    0.37648   0.31408   0.41135   1.000
    O649    O    0.87650   0.31408   0.41140   1.000
    O650    O    0.87648   0.81408   0.41140   1.000
    O651    O    0.37648   0.81408   0.41140   1.000
    O652    O    0.16939   0.51173   0.42878   1.000
    O653    O    0.16937   0.01173   0.42875   1.000
    O654    O    0.66939   0.51173   0.42878   1.000
    O655    O    0.66939   0.01173   0.42875   1.000
    O656    O    0.05056   0.69968   0.43542   1.000
    O657    O    0.99854   0.73855   0.44751   1.000
    O658    O    0.55057   0.19967   0.43544   1.000
    O659    O    0.49854   0.23855   0.44752   1.000
    O660    O    0.55057   0.69968   0.43545   1.000
    O661    O    0.49854   0.73855   0.44753   1.000
    O662    O    0.05056   0.19967   0.43545   1.000
    O663    O    0.99854   0.23855   0.44753   1.000
    O664    O    0.71515   0.53685   0.44231   1.000
    O665    O    0.76756   0.56113   0.46144   1.000
    O666    O    0.21513   0.03684   0.44229   1.000
    O667    O    0.26755   0.06112   0.46148   1.000
    O668    O    0.71515   0.03683   0.44229   1.000
    O669    O    0.76757   0.06112   0.46148   1.000
    O670    O    0.21513   0.53684   0.44232   1.000
    O671    O    0.26755   0.56113   0.46148   1.000
    O672    O    0.93740   0.28326   0.45431   1.000
    O673    O    0.87847   0.32565   0.45449   1.000
    O674    O    0.43738   0.28326   0.45431   1.000
    O675    O    0.37845   0.32565   0.45445   1.000
    O676    O    0.43738   0.78326   0.45432   1.000
    O677    O    0.37845   0.82564   0.45450   1.000
    O678    O    0.93739   0.78326   0.45432   1.000
    O679    O    0.87846   0.82564   0.45450   1.000
    O680    O    0.69760   0.97570   0.48079   1.000
    O681    O    0.19758   0.97570   0.48075   1.000
    O682    O    0.69760   0.47570   0.48082   1.000
    O683    O    0.19759   0.47570   0.48082   1.000
    O684    O    0.50001   0.25000   0.49998   1.000
    O685    O    0.50001   0.74999   0.49999   1.000
    O686    O    0.00001   0.24999   0.49999   1.000
    O687    O    0.00000   0.75000   0.49999   1.000
    O688    O    0.81476   0.07909   0.48166   1.000
    O689    O    0.31474   0.07909   0.48166   1.000
    O690    O    0.31476   0.57909   0.48165   1.000
    O691    O    0.81476   0.57910   0.48162   1.000
    O692    O    0.80243   0.52428   0.51911   1.000
    O693    O    0.30242   0.52427   0.51916   1.000
    O694    O    0.30241   0.02428   0.51916   1.000
    O695    O    0.80243   0.02427   0.51916   1.000
    O696    O    0.18526   0.92089   0.51827   1.000
    O697    O    0.23245   0.93886   0.53845   1.000
    O698    O    0.68528   0.92088   0.51831   1.000
    O699    O    0.73247   0.93885   0.53849   1.000
    O700    O    0.18525   0.42088   0.51829   1.000
    O701    O    0.23246   0.43884   0.53849   1.000
    O702    O    0.68527   0.42088   0.51829   1.000
    O703    O    0.73246   0.43885   0.53834   1.000
    O704    O    0.12154   0.67435   0.54543   1.000
    O705    O    0.12156   0.17435   0.54546   1.000
    O706    O    0.62157   0.17436   0.54546   1.000
    O707    O    0.62157   0.67435   0.54547   1.000
    O708    O    0.56264   0.21674   0.54565   1.000
    O709    O    0.50147   0.26144   0.55244   1.000
    O710    O    0.56263   0.71673   0.54566   1.000
    O711    O    0.50148   0.76144   0.55244   1.000
    O712    O    0.06263   0.21673   0.54565   1.000
    O713    O    0.00148   0.26144   0.55244   1.000
    O714    O    0.06261   0.71673   0.54566   1.000
    O715    O    0.00147   0.76145   0.55244   1.000
    O716    O    0.28486   0.96314   0.55766   1.000
    O717    O    0.33063   0.98825   0.57120   1.000
    O718    O    0.78488   0.46314   0.55751   1.000
    O719    O    0.83064   0.48825   0.57120   1.000
    O720    O    0.28487   0.46313   0.55766   1.000
    O721    O    0.33062   0.48825   0.57120   1.000
    O722    O    0.78488   0.96314   0.55766   1.000
    O723    O    0.83065   0.98825   0.57120   1.000
    O724    O    0.94945   0.80032   0.56451   1.000
    O725    O    0.94946   0.30030   0.56451   1.000
    O726    O    0.44944   0.80031   0.56452   1.000
    O727    O    0.44944   0.30031   0.56452   1.000
    O728    O    0.62354   0.18592   0.58856   1.000
    O729    O    0.12353   0.18591   0.58856   1.000
    O730    O    0.62354   0.68591   0.58857   1.000
    O731    O    0.12352   0.68591   0.58857   1.000
    O732    O    0.76643   0.39983   0.59877   1.000
    O733    O    0.26643   0.39982   0.59892   1.000
    O734    O    0.76644   0.89983   0.59892   1.000
    O735    O    0.26642   0.89984   0.59892   1.000
    O736    O    0.50315   0.27381   0.60202   1.000
    O737    O    0.50316   0.77381   0.60202   1.000
    O738    O    0.00316   0.27380   0.60202   1.000
    O739    O    0.00315   0.77382   0.60202   1.000
    O740    O    0.17556   0.16194   0.62869   1.000
    O741    O    0.12414   0.20024   0.63662   1.000
    O742    O    0.67557   0.16194   0.62871   1.000
    O743    O    0.62415   0.20025   0.63662   1.000
    O744    O    0.17555   0.66193   0.62873   1.000
    O745    O    0.12413   0.70025   0.63663   1.000
    O746    O    0.67557   0.66193   0.62873   1.000
    O747    O    0.62415   0.70024   0.63663   1.000
    O748    O    0.56493   0.74344   0.64329   1.000
    O749    O    0.50987   0.78219   0.64714   1.000
    O750    O    0.06490   0.74344   0.64329   1.000
    O751    O    0.00985   0.78220   0.64713   1.000
    O752    O    0.06491   0.24343   0.64329   1.000
    O753    O    0.00986   0.28218   0.64714   1.000
    O754    O    0.56492   0.24343   0.64329   1.000
    O755    O    0.50986   0.28219   0.64714   1.000
    O756    O    0.24686   0.84218   0.63798   1.000
    O757    O    0.29913   0.86176   0.65591   1.000
    O758    O    0.74688   0.84218   0.63798   1.000
    O759    O    0.79915   0.86176   0.65591   1.000
    O760    O    0.74687   0.34217   0.63798   1.000
    O761    O    0.79914   0.36176   0.65591   1.000
    O762    O    0.24685   0.34217   0.63798   1.000
    O763    O    0.29912   0.36175   0.65592   1.000
    O764    O    0.20209   0.27286   0.68396   1.000
    O765    O    0.70210   0.77287   0.68396   1.000
    O766    O    0.70210   0.27286   0.68396   1.000
    O767    O    0.20208   0.77287   0.68396   1.000
    O768    O    0.64343   0.22300   0.69008   1.000
    O769    O    0.14341   0.72300   0.69009   1.000
    O770    O    0.64344   0.72300   0.69009   1.000
    O771    O    0.14342   0.22299   0.69009   1.000
    O772    O    0.82129   0.31642   0.72673   1.000
    O773    O    0.82130   0.81642   0.72673   1.000
    O774    O    0.32128   0.81643   0.72669   1.000
    O775    O    0.32129   0.31641   0.72673   1.000
    O776    O    0.37795   0.51702   0.72333   1.000
    O777    O    0.87796   0.01701   0.72333   1.000
    O778    O    0.87797   0.51701   0.72333   1.000
    O779    O    0.37796   0.01700   0.72333   1.000
    O780    O    0.96304   0.42417   0.72831   1.000
    O781    O    0.96303   0.92418   0.72836   1.000
    O782    O    0.46302   0.92418   0.72836   1.000
    O783    O    0.46302   0.42417   0.72836   1.000
    O784    O    0.23732   0.18651   0.72515   1.000
    O785    O    0.33202   0.14271   0.73401   1.000
    O786    O    0.73734   0.68652   0.72519   1.000
    O787    O    0.83203   0.64272   0.73405   1.000
    O788    O    0.73733   0.18651   0.72519   1.000
    O789    O    0.83202   0.14272   0.73404   1.000
    O790    O    0.23731   0.68652   0.72519   1.000
    O791    O    0.33200   0.64273   0.73405   1.000
    O792    O    0.14085   0.27073   0.73328   1.000
    O793    O    0.17613   0.18446   0.77388   1.000
    O794    O    0.64086   0.77074   0.73328   1.000
    O795    O    0.67614   0.68447   0.77385   1.000
    O796    O    0.64085   0.27073   0.73328   1.000
    O797    O    0.67614   0.18447   0.77385   1.000
    O798    O    0.14084   0.77074   0.73328   1.000
    O799    O    0.17612   0.68448   0.77388   1.000
    O800    O    0.94247   0.47896   0.73259   1.000
    O801    O    0.92466   0.54012   0.73847   1.000
    O802    O    0.94246   0.97896   0.73259   1.000
    O803    O    0.92465   0.04011   0.73847   1.000
    O804    O    0.44245   0.47896   0.73259   1.000
    O805    O    0.42464   0.54012   0.73847   1.000
    O806    O    0.44246   0.97896   0.73260   1.000
    O807    O    0.42465   0.04011   0.73847   1.000
    O808    O    0.01663   0.93947   0.74444   1.000
    O809    O    0.01664   0.43945   0.74444   1.000
    O810    O    0.51664   0.93946   0.74445   1.000
    O811    O    0.51663   0.43946   0.74444   1.000
    O812    O    0.61329   0.33855   0.74930   1.000
    O813    O    0.61330   0.83855   0.74930   1.000
    O814    O    0.11327   0.83855   0.74930   1.000
    O815    O    0.11328   0.33854   0.74930   1.000
    O816    O    0.90422   0.10345   0.74475   1.000
    O817    O    0.88452   0.16255   0.75154   1.000
    O818    O    0.90423   0.60346   0.74475   1.000
    O819    O    0.88452   0.66255   0.75155   1.000
    O820    O    0.40420   0.60346   0.74475   1.000
    O821    O    0.38450   0.66255   0.75155   1.000
    O822    O    0.40421   0.10345   0.74475   1.000
    O823    O    0.38451   0.16254   0.75155   1.000
    O824    O    0.48103   0.06177   0.75614   1.000
    O825    O    0.48101   0.56178   0.75616   1.000
    O826    O    0.98103   0.56178   0.75616   1.000
    O827    O    0.98102   0.06177   0.75617   1.000
    O828    O    0.09347   0.89776   0.75594   1.000
    O829    O    0.07299   0.96113   0.76213   1.000
    O830    O    0.59349   0.39775   0.75594   1.000
    O831    O    0.57301   0.46112   0.76214   1.000
    O832    O    0.09348   0.39775   0.75594   1.000
    O833    O    0.07300   0.46112   0.76214   1.000
    O834    O    0.59350   0.89775   0.75594   1.000
    O835    O    0.57302   0.96113   0.76214   1.000
    O836    O    0.66572   0.85857   0.76668   1.000
    O837    O    0.16570   0.35856   0.76669   1.000
    O838    O    0.16569   0.85857   0.76667   1.000
    O839    O    0.66571   0.35856   0.76667   1.000
    O840    O    0.35674   0.23031   0.76753   1.000
    O841    O    0.35673   0.73032   0.76749   1.000
    O842    O    0.85675   0.23032   0.76753   1.000
    O843    O    0.85676   0.73032   0.76753   1.000
    O844    O    0.55521   0.02229   0.76796   1.000
    O845    O    0.53465   0.07706   0.77220   1.000
    O846    O    0.05519   0.02229   0.76799   1.000
    O847    O    0.03462   0.07706   0.77222   1.000
    O848    O    0.55520   0.52229   0.76799   1.000
    O849    O    0.53464   0.57707   0.77223   1.000
    O850    O    0.05520   0.52229   0.76799   1.000
    O851    O    0.03463   0.57707   0.77223   1.000
    O852    O    0.61971   0.98425   0.77724   1.000
    O853    O    0.11969   0.48424   0.77725   1.000
    O854    O    0.61970   0.48424   0.77725   1.000
    O855    O    0.11969   0.98425   0.77721   1.000
    O856    O    0.26018   0.81473   0.77545   1.000
    O857    O    0.35421   0.77793   0.81046   1.000
    O858    O    0.29495   0.72846   0.81657   1.000
    O859    O    0.26019   0.31472   0.77550   1.000
    O860    O    0.35422   0.27792   0.81049   1.000
    O861    O    0.29496   0.22845   0.81660   1.000
    O862    O    0.76020   0.31472   0.77549   1.000
    O863    O    0.85423   0.27793   0.81049   1.000
    O864    O    0.79496   0.22845   0.81660   1.000
    O865    O    0.76020   0.81473   0.77550   1.000
    O866    O    0.85423   0.77793   0.81049   1.000
    O867    O    0.79497   0.72846   0.81660   1.000
    O868    O    0.69841   0.63902   0.84453   1.000
    O869    O    0.69840   0.13902   0.84454   1.000
    O870    O    0.19839   0.63903   0.84457   1.000
    O871    O    0.19838   0.13902   0.84457   1.000
    O872    O    0.48785   0.71863   0.85260   1.000
    O873    O    0.98666   0.21865   0.85260   1.000
    O874    O    0.98666   0.71864   0.85261   1.000
    O875    O    0.48786   0.21862   0.85262   1.000
    O876    O    0.93308   0.25730   0.85690   1.000
    O877    O    0.87416   0.30036   0.86406   1.000
    O878    O    0.43307   0.75730   0.85691   1.000
    O879    O    0.37415   0.80037   0.86406   1.000
    O880    O    0.93309   0.75730   0.85691   1.000
    O881    O    0.87417   0.80036   0.86406   1.000
    O882    O    0.43308   0.25729   0.85691   1.000
    O883    O    0.37416   0.30036   0.86406   1.000
    O884    O    0.75030   0.65903   0.86245   1.000
    O885    O    0.25028   0.15903   0.86245   1.000
    O886    O    0.25029   0.65903   0.86245   1.000
    O887    O    0.75030   0.15903   0.86245   1.000
    O888    O    0.82304   0.33855   0.87235   1.000
    O889    O    0.32304   0.83858   0.87239   1.000
    O890    O    0.32305   0.33857   0.87239   1.000
    O891    O    0.82305   0.83856   0.87240   1.000
    O892    O    0.73169   0.60085   0.90140   1.000
    O893    O    0.23168   0.60085   0.90140   1.000
    O894    O    0.23169   0.10084   0.90139   1.000
    O895    O    0.73169   0.10084   0.90141   1.000
    O896    O    0.99527   0.22678   0.89776   1.000
    O897    O    0.49527   0.22676   0.89777   1.000
    O898    O    0.49527   0.72677   0.89777   1.000
    O899    O    0.99527   0.72677   0.89777   1.000
    O900    O    0.37552   0.31441   0.91220   1.000
    O901    O    0.37551   0.81442   0.91223   1.000
    O902    O    0.87552   0.31440   0.91223   1.000
    O903    O    0.87553   0.81441   0.91223   1.000
    O904    O    0.66871   0.51156   0.92927   1.000
    O905    O    0.66871   0.01155   0.92927   1.000
    O906    O    0.16870   0.51156   0.92927   1.000
    O907    O    0.16869   0.01155   0.92927   1.000
    O908    O    0.04938   0.20016   0.93490   1.000
    O909    O    0.99772   0.23886   0.94743   1.000
    O910    O    0.54938   0.70014   0.93491   1.000
    O911    O    0.49772   0.73885   0.94744   1.000
    O912    O    0.54939   0.20013   0.93491   1.000
    O913    O    0.49772   0.23885   0.94744   1.000
    O914    O    0.04938   0.70014   0.93491   1.000
    O915    O    0.99772   0.73885   0.94744   1.000
    O916    O    0.21423   0.03701   0.94260   1.000
    O917    O    0.26649   0.06165   0.96153   1.000
    O918    O    0.21423   0.53702   0.94261   1.000
    O919    O    0.26648   0.56166   0.96154   1.000
    O920    O    0.71424   0.03701   0.94261   1.000
    O921    O    0.76650   0.06166   0.96155   1.000
    O922    O    0.71424   0.53702   0.94261   1.000
    O923    O    0.76650   0.56167   0.96154   1.000
    O924    O    0.43689   0.28343   0.95472   1.000
    O925    O    0.37817   0.32573   0.95539   1.000
    O926    O    0.93689   0.78343   0.95474   1.000
    O927    O    0.87817   0.82572   0.95541   1.000
    O928    O    0.93689   0.28343   0.95474   1.000
    O929    O    0.87816   0.32571   0.95542   1.000
    O930    O    0.43688   0.78343   0.95474   1.000
    O931    O    0.37816   0.82573   0.95541   1.000
    O932    O    0.31361   0.57993   0.98142   1.000
    O933    O    0.81363   0.57993   0.98142   1.000
    O934    O    0.31360   0.07993   0.98148   1.000
    O935    O    0.81362   0.07993   0.98147   1.000
    O936    O    0.25134   0.24942   0.24964   1.000
    O937    O    0.24866   0.25055   0.75034   1.000
    O938    O    0.25134   0.74943   0.24965   1.000
    O939    O    0.24865   0.75056   0.75030   1.000
    O940    O    0.75136   0.24942   0.24965   1.000
    O941    O    0.74867   0.25055   0.75034   1.000
    O942    O    0.75135   0.74943   0.24964   1.000
    O943    O    0.74868   0.75056   0.75034   1.000
loop_
    _geom_bond_atom_site_label_1
    _geom_bond_atom_site_label_2
    _geom_bond_distance
    _geom_bond_site_symmetry_2
    _ccdc_geom_bond_type
    C274   O432      0.54471      .   S
    C130   O432      0.54471      .   S
    C274   O433      0.70237      .   S
    C258   O433      0.70237      .   S
    C274   O434      0.69628  1_554   S
    C161   O434      0.69628  1_545   S
    C278   O435      0.54471      .   S
    C134   O435      0.54471      .   S
    C278   O436      0.70239      .   S
    C262   O436      0.70239      .   S
    C278   O437      0.69628  1_554   S
    C165   O437      0.69628  1_545   S
    C272   O438      0.54471      .   S
    C128   O438      0.54471      .   S
    C272   O439      0.70237      .   S
    C256   O439      0.70237      .   S
    C272   O440      0.69638  1_554   S
    C163   O440      0.69638      .   S
    C276   O441      0.54470      .   S
    C132   O441      0.54470      .   S
    C276   O442      0.70238      .   S
    C260   O442      0.70238      .   S
    C276   O443      0.69638  1_554   S
    C167   O443      0.69638      .   S
    C40    O444      0.54417      .   S
    C208   O444      0.54417      .   S
    C44    O445      0.54401      .   S
    C212   O445      0.54401      .   S
    C46    O446      0.54401      .   S
    C214   O446      0.54401      .   S
    C42    O447      0.54406      .   S
    C210   O447      0.54406      .   S
    C222   O448      0.70328      .   S
    C214   O448      0.70328      .   S
    C222   O449      0.70278      .   S
    C226   O449      0.70278      .   S
    C222   O450      0.74244  1_554   S
    C323   O450      0.74244      .   S
    C220   O451      0.70328      .   S
    C212   O451      0.70328      .   S
    C220   O452      0.70279      .   S
    C224   O452      0.70279      .   S
    C220   O453      0.74244  1_554   S
    C321   O453      0.74244      .   S
    C216   O454      0.70328      .   S
    C208   O454      0.70328      .   S
    C216   O455      0.70271      .   S
    C228   O455      0.70271  1_655   S
    C216   O456      0.74234  1_554   S
    C325   O456      0.74234  1_655   S
    C218   O457      0.70329      .   S
    C210   O457      0.70329      .   S
    C218   O458      0.70277      .   S
    C230   O458      0.70277  1_655   S
    C218   O459      0.74224  1_554   S
    C327   O459      0.74224  1_655   S
    C264   O460      0.70165      .   S
    C256   O460      0.70165      .   S
    C264   O461      0.54483      .   S
    C112   O461      0.54483      .   S
    C264   O462      0.69638      .   S
    C171   O462      0.69638  1_556   S
    C266   O463      0.70165      .   S
    C258   O463      0.70165      .   S
    C266   O464      0.54486      .   S
    C114   O464      0.54486      .   S
    C266   O465      0.69628  1_565   S
    C169   O465      0.69628  1_556   S
    C268   O466      0.70165      .   S
    C260   O466      0.70165      .   S
    C268   O467      0.54458      .   S
    C116   O467      0.54458      .   S
    C268   O468      0.69638      .   S
    C175   O468      0.69638  1_556   S
    C270   O469      0.70165      .   S
    C262   O469      0.70165      .   S
    C270   O470      0.54481      .   S
    C118   O470      0.54481      .   S
    C270   O471      0.69628  1_565   S
    C173   O471      0.69628  1_556   S
    C76    O472      0.54365      .   S
    C228   O472      0.54365      .   S
    C78    O473      0.54365      .   S
    C230   O473      0.54365      .   S
    C74    O474      0.54366      .   S
    C226   O474      0.54366      .   S
    C72    O475      0.54365      .   S
    C224   O475      0.54365      .   S
    C212   O476      0.69349      .   S
    C204   O476      0.69349      .   S
    C214   O477      0.69282      .   S
    C206   O477      0.69282      .   S
    C210   O478      0.69272      .   S
    C202   O478      0.69272      .   S
    C208   O479      0.69271      .   S
    C200   O479      0.69271      .   S
    C256   O480      0.75263      .   S
    C248   O480      0.75263      .   S
    C260   O481      0.75262      .   S
    C252   O481      0.75262      .   S
    C262   O482      0.75268      .   S
    C254   O482      0.75268      .   S
    C258   O483      0.75260      .   S
    C250   O483      0.75260      .   S
    C228   O484      0.69422  1_655   S
    C232   O484      0.69422      .   S
    C224   O485      0.69434      .   S
    C236   O485      0.69434      .   S
    C226   O486      0.69436      .   S
    C238   O486      0.69436      .   S
    C230   O487      0.69424  1_655   S
    C234   O487      0.69424      .   S
    C206   O488      0.54483      .   S
    C38    O488      0.54483      .   S
    C206   O489      0.67556      .   S
    C358   O489      0.67556      .   S
    C202   O490      0.54484      .   S
    C34    O490      0.54484      .   S
    C202   O491      0.67571      .   S
    C354   O491      0.67571      .   S
    C200   O492      0.54483      .   S
    C32    O492      0.54483      .   S
    C200   O493      0.67564      .   S
    C352   O493      0.67564      .   S
    C204   O494      0.54473      .   S
    C36    O494      0.54473      .   S
    C204   O495      0.67493      .   S
    C356   O495      0.67493      .   S
    C232   O496      0.67453      .   S
    C352   O496      0.67453      .   S
    C232   O497      0.54435      .   S
    C56    O497      0.54435  1_655   S
    C238   O498      0.67453      .   S
    C358   O498      0.67453      .   S
    C238   O499      0.54430      .   S
    C62    O499      0.54430      .   S
    C236   O500      0.67453      .   S
    C356   O500      0.67453      .   S
    C236   O501      0.54429      .   S
    C60    O501      0.54429      .   S
    C234   O502      0.67454      .   S
    C354   O502      0.67454      .   S
    C234   O503      0.54434      .   S
    C58    O503      0.54434  1_655   S
    C250   O504      0.63435      .   S
    C410   O504      0.63435      .   S
    C250   O505      0.63960      .   S
    C402   O505      0.63960      .   S
    C248   O506      0.63436      .   S
    C408   O506      0.63436      .   S
    C248   O507      0.63958      .   S
    C400   O507      0.63958      .   S
    C252   O508      0.63436      .   S
    C412   O508      0.63436      .   S
    C252   O509      0.63959      .   S
    C404   O509      0.63959      .   S
    C254   O510      0.63437      .   S
    C414   O510      0.63437      .   S
    C254   O511      0.63955      .   S
    C406   O511      0.63955      .   S
    C410   O512      1.07196      .   S
    C2     O512      1.07196      .   S
    C412   O513      1.07197      .   S
    C4     O513      1.07197      .   S
    C408   O514      1.07191      .   S
    C0     O514      1.07191      .   S
    C414   O515      1.07192      .   S
    C6     O515      1.07192      .   S
    C352   O516      1.03296      .   S
    C0     O516      1.03296      .   S
    C356   O517      1.03302      .   S
    C4     O517      1.03302      .   S
    C358   O518      1.03296      .   S
    C6     O518      1.03296      .   S
    C354   O519      1.03297      .   S
    C2     O519      1.03297      .   S
    C400   O520      1.03678      .   S
    C8     O520      1.03678      .   S
    C404   O521      1.03678      .   S
    C12    O521      1.03678      .   S
    C402   O522      1.03678      .   S
    C10    O522      1.03678      .   S
    C406   O523      1.03679      .   S
    C14    O523      1.03679      .   S
    C24    O524      0.54452      .   S
    C192   O524      0.54452      .   S
    C26    O525      0.54453      .   S
    C194   O525      0.54453      .   S
    C28    O526      0.54451      .   S
    C196   O526      0.54451      .   S
    C30    O527      0.54440      .   S
    C198   O527      0.54440      .   S
    C84    O528      0.54451      .   S
    C292   O528      0.54451      .   S
    C86    O529      0.54417      .   S
    C294   O529      0.54417      .   S
    C82    O530      0.54417      .   S
    C290   O530      0.54417      .   S
    C80    O531      0.54406      .   S
    C288   O531      0.54406      .   S
    C390   O532      1.03295      .   S
    C6     O532      1.03295      .   S
    C390   O533      0.63728      .   S
    C182   O533      0.63728      .   S
    C388   O534      1.03298      .   S
    C4     O534      1.03298      .   S
    C388   O535      0.63729      .   S
    C180   O535      0.63729      .   S
    C384   O536      1.03295      .   S
    C0     O536      1.03295      .   S
    C384   O537      0.63727      .   S
    C176   O537      0.63727      .   S
    C386   O538      1.03299      .   S
    C2     O538      1.03299      .   S
    C386   O539      0.63727      .   S
    C178   O539      0.63727      .   S
    C6     O540      1.02314      .   S
    C430   O540      1.02314      .   S
    C6     O541      1.03589      .   S
    C374   O541      1.03589      .   S
    C0     O542      1.02266      .   S
    C424   O542      1.02266      .   S
    C0     O543      1.03657      .   S
    C368   O543      1.03657      .   S
    C4     O544      1.02310      .   S
    C428   O544      1.02310      .   S
    C4     O545      1.03650      .   S
    C372   O545      1.03650      .   S
    C2     O546      1.02312      .   S
    C426   O546      1.02312      .   S
    C2     O547      1.03650      .   S
    C370   O547      1.03650      .   S
    C198   O548      0.69542      .   S
    C292   O548      0.69542      .   S
    C198   O549      0.70222      .   S
    C246   O549      0.70222      .   S
    C192   O550      0.69544  1_545   S
    C290   O550      0.69544      .   S
    C192   O551      0.70190      .   S
    C240   O551      0.70190      .   S
    C196   O552      0.69544  1_545   S
    C294   O552      0.69544      .   S
    C196   O553      0.70194      .   S
    C244   O553      0.70194      .   S
    C194   O554      0.69564      .   S
    C288   O554      0.69564      .   S
    C194   O555      0.70191      .   S
    C242   O555      0.70191      .   S
    C288   O556      0.70172      .   S
    C348   O556      0.70172      .   S
    C294   O557      0.70145  1_655   S
    C346   O557      0.70145      .   S
    C292   O558      0.70147  1_655   S
    C344   O558      0.70147      .   S
    C290   O559      0.70168      .   S
    C350   O559      0.70168      .   S
    C424   O560      0.63839      .   S
    C280   O560      0.63839      .   S
    C430   O561      0.63787      .   S
    C286   O561      0.63787      .   S
    C428   O562      0.63782      .   S
    C284   O562      0.63782      .   S
    C426   O563      0.63783      .   S
    C282   O563      0.63783      .   S
    C176   O564      0.75012      .   S
    C240   O564      0.75012      .   S
    C176   O565      0.63787      .   S
    C392   O565      0.63787      .   S
    C178   O566      0.75011      .   S
    C242   O566      0.75011      .   S
    C178   O567      0.63787      .   S
    C394   O567      0.63787      .   S
    C182   O568      0.75013      .   S
    C246   O568      0.75013      .   S
    C182   O569      0.63785      .   S
    C398   O569      0.63785      .   S
    C180   O570      0.75015      .   S
    C244   O570      0.75015      .   S
    C180   O571      0.63781      .   S
    C396   O571      0.63781      .   S
    C244   O572      0.70151      .   S
    C184   O572      0.70151  1_455   S
    C240   O573      0.70172      .   S
    C188   O573      0.70172      .   S
    C246   O574      0.70148      .   S
    C186   O574      0.70148  1_455   S
    C242   O575      0.70171      .   S
    C190   O575      0.70171      .   S
    C350   O576      0.75006      .   S
    C286   O576      0.75006      .   S
    C350   O577      0.70189      .   S
    C302   O577      0.70189      .   S
    C344   O578      0.75008      .   S
    C280   O578      0.75008      .   S
    C344   O579      0.70190      .   S
    C296   O579      0.70190      .   S
    C348   O580      0.75008      .   S
    C284   O580      0.75008      .   S
    C348   O581      0.70189      .   S
    C300   O581      0.70189      .   S
    C346   O582      0.75005      .   S
    C282   O582      0.75005      .   S
    C346   O583      0.70195      .   S
    C298   O583      0.70195      .   S
    C284   O584      0.63729      .   S
    C420   O584      0.63729      .   S
    C280   O585      0.63731      .   S
    C416   O585      0.63731      .   S
    C282   O586      0.63729      .   S
    C418   O586      0.63729      .   S
    C286   O587      0.63701      .   S
    C422   O587      0.63701      .   S
    C394   O588      1.02218      .   S
    C10    O588      1.02218      .   S
    C396   O589      1.02219      .   S
    C12    O589      1.02219      .   S
    C398   O590      1.02218      .   S
    C14    O590      1.02218      .   S
    C392   O591      1.02220      .   S
    C8     O591      1.02220      .   S
    C188   O592      0.69554      .   S
    C302   O592      0.69554  1_565   S
    C188   O593      0.54422      .   S
    C20    O593      0.54422      .   S
    C190   O594      0.69567      .   S
    C300   O594      0.69567      .   S
    C190   O595      0.54424      .   S
    C22    O595      0.54424      .   S
    C186   O596      0.69567      .   S
    C296   O596      0.69567      .   S
    C186   O597      0.54424      .   S
    C18    O597      0.54424      .   S
    C184   O598      0.69554      .   S
    C298   O598      0.69554  1_565   S
    C184   O599      0.54422      .   S
    C16    O599      0.54422      .   S
    C300   O600      0.54454      .   S
    C92    O600      0.54454      .   S
    C296   O601      0.54437      .   S
    C88    O601      0.54437      .   S
    C298   O602      0.54454      .   S
    C90    O602      0.54454      .   S
    C302   O603      0.54455      .   S
    C94    O603      0.54455      .   S
    C10    O604      1.03334      .   S
    C418   O604      1.03334      .   S
    C10    O605      1.03315      .   S
    C362   O605      1.03315      .   S
    C10    O606      1.07304      .   S
    C378   O606      1.07304      .   S
    C14    O607      1.03303      .   S
    C422   O607      1.03303      .   S
    C14    O608      1.03316      .   S
    C366   O608      1.03316      .   S
    C14    O609      1.07303      .   S
    C382   O609      1.07303      .   S
    C12    O610      1.03334      .   S
    C420   O610      1.03334      .   S
    C12    O611      1.03316      .   S
    C364   O611      1.03316      .   S
    C12    O612      1.07306      .   S
    C380   O612      1.07306      .   S
    C8     O613      1.03334      .   S
    C416   O613      1.03334      .   S
    C8     O614      1.03319      .   S
    C360   O614      1.03319      .   S
    C8     O615      1.07304      .   S
    C376   O615      1.07304      .   S
    C374   O616      0.64022      .   S
    C150   O616      0.64022      .   S
    C368   O617      0.63949      .   S
    C144   O617      0.63949      .   S
    C370   O618      0.63955      .   S
    C146   O618      0.63955      .   S
    C372   O619      0.63950      .   S
    C148   O619      0.63950      .   S
    C120   O620      0.54444      .   S
    C336   O620      0.54444      .   S
    C126   O621      0.53329  1_455   S
    C342   O621      0.53329      .   S
    C124   O622      0.53388  1_455   S
    C340   O622      0.53388      .   S
    C122   O623      0.54442      .   S
    C338   O623      0.54442      .   S
    C366   O624      0.67450      .   S
    C342   O624      0.67450      .   S
    C366   O625      0.67499      .   S
    C310   O625      0.67499      .   S
    C364   O626      0.67456      .   S
    C340   O626      0.67456      .   S
    C364   O627      0.67505      .   S
    C308   O627      0.67505      .   S
    C362   O628      0.67457      .   S
    C338   O628      0.67457      .   S
    C362   O629      0.67500      .   S
    C306   O629      0.67500      .   S
    C360   O630      0.67456      .   S
    C336   O630      0.67456      .   S
    C360   O631      0.67424      .   S
    C304   O631      0.67424      .   S
    C376   O632      0.63432      .   S
    C144   O632      0.63432      .   S
    C378   O633      0.63431      .   S
    C146   O633      0.63431      .   S
    C380   O634      0.63432      .   S
    C148   O634      0.63432      .   S
    C382   O635      0.63432      .   S
    C150   O635      0.63432      .   S
    C100   O636      0.54472      .   S
    C308   O636      0.54472      .   S
    C96    O637      0.54459      .   S
    C304   O637      0.54459      .   S
    C102   O638      0.54472      .   S
    C310   O638      0.54472      .   S
    C98    O639      0.54472      .   S
    C306   O639      0.54472      .   S
    C150   O640      0.75285      .   S
    C158   O640      0.75285      .   S
    C148   O641      0.75287      .   S
    C156   O641      0.75287      .   S
    C146   O642      0.75285      .   S
    C154   O642      0.75285      .   S
    C144   O643      0.75287      .   S
    C152   O643      0.75287      .   S
    C342   O644      0.69453      .   S
    C330   O644      0.69453  1_455   S
    C338   O645      0.69444      .   S
    C334   O645      0.69444      .   S
    C340   O646      0.69434      .   S
    C328   O646      0.69434  1_455   S
    C336   O647      0.69437      .   S
    C332   O647      0.69437      .   S
    C304   O648      0.69424      .   S
    C312   O648      0.69424      .   S
    C308   O649      0.69335      .   S
    C316   O649      0.69335      .   S
    C310   O650      0.69342      .   S
    C318   O650      0.69342      .   S
    C306   O651      0.69343      .   S
    C314   O651      0.69343      .   S
    C50    O652      0.54483      .   S
    C162   O652      0.54483      .   S
    C48    O653      0.54446      .   S
    C160   O653      0.54446      .   S
    C54    O654      0.54481      .   S
    C166   O654      0.54481      .   S
    C52    O655      0.54444      .   S
    C164   O655      0.54444      .   S
    C330   O656      0.54370      .   S
    C138   O656      0.54370      .   S
    C330   O657      0.70318  1_455   S
    C326   O657      0.70318      .   S
    C332   O658      0.54370      .   S
    C140   O658      0.54370      .   S
    C332   O659      0.70293      .   S
    C320   O659      0.70293      .   S
    C334   O660      0.54370      .   S
    C142   O660      0.54370      .   S
    C334   O661      0.70290      .   S
    C322   O661      0.70290      .   S
    C328   O662      0.54370      .   S
    C136   O662      0.54370      .   S
    C328   O663      0.70287  1_455   S
    C324   O663      0.70287      .   S
    C158   O664      0.70172      .   S
    C166   O664      0.70172      .   S
    C158   O665      0.70163      .   S
    C174   O665      0.70163      .   S
    C152   O666      0.70179      .   S
    C160   O666      0.70179      .   S
    C152   O667      0.70235      .   S
    C168   O667      0.70235      .   S
    C156   O668      0.70179      .   S
    C164   O668      0.70179      .   S
    C156   O669      0.70235      .   S
    C172   O669      0.70235      .   S
    C154   O670      0.70173      .   S
    C162   O670      0.70173      .   S
    C154   O671      0.70232      .   S
    C170   O671      0.70232      .   S
    C316   O672      0.70325      .   S
    C324   O672      0.70325      .   S
    C316   O673      0.54412      .   S
    C108   O673      0.54412      .   S
    C312   O674      0.70323      .   S
    C320   O674      0.70323      .   S
    C312   O675      0.54344      .   S
    C104   O675      0.54344      .   S
    C314   O676      0.70324      .   S
    C322   O676      0.70324      .   S
    C314   O677      0.54408      .   S
    C106   O677      0.54408      .   S
    C318   O678      0.70324      .   S
    C326   O678      0.70324      .   S
    C318   O679      0.54408      .   S
    C110   O679      0.54408      .   S
    C164   O680      0.69664  1_545   S
    C279   O680      0.69664      .   S
    C160   O681      0.69609  1_545   S
    C275   O681      0.69609      .   S
    C166   O682      0.69649      .   S
    C277   O682      0.69649      .   S
    C162   O683      0.69642      .   S
    C273   O683      0.69642      .   S
    C320   O684      0.74253      .   S
    C221   O684      0.74253      .   S
    C322   O685      0.74253      .   S
    C223   O685      0.74253      .   S
    C324   O686      0.74242  1_655   S
    C217   O686      0.74242      .   S
    C326   O687      0.74242  1_655   S
    C219   O687      0.74242      .   S
    C68    O688      0.54474      .   S
    C172   O688      0.54474      .   S
    C64    O689      0.54472      .   S
    C168   O689      0.54472      .   S
    C66    O690      0.54473      .   S
    C170   O690      0.54473      .   S
    C70    O691      0.54486      .   S
    C174   O691      0.54486      .   S
    C174   O692      0.69703      .   S
    C269   O692      0.69703      .   S
    C170   O693      0.69642      .   S
    C265   O693      0.69642      .   S
    C168   O694      0.69636      .   S
    C267   O694      0.69636  1_565   S
    C172   O695      0.69637      .   S
    C271   O695      0.69637  1_565   S
    C275   O696      0.54461      .   S
    C131   O696      0.54461      .   S
    C275   O697      0.70311      .   S
    C259   O697      0.70311      .   S
    C279   O698      0.54472      .   S
    C135   O698      0.54472      .   S
    C279   O699      0.70243      .   S
    C263   O699      0.70243      .   S
    C273   O700      0.54478      .   S
    C129   O700      0.54478      .   S
    C273   O701      0.70240      .   S
    C257   O701      0.70240      .   S
    C277   O702      0.54480      .   S
    C133   O702      0.54480      .   S
    C277   O703      0.69986      .   S
    C261   O703      0.69986      .   S
    C43    O704      0.54479      .   S
    C211   O704      0.54479      .   S
    C41    O705      0.54406      .   S
    C209   O705      0.54406      .   S
    C45    O706      0.54407      .   S
    C213   O706      0.54407      .   S
    C47    O707      0.54409      .   S
    C215   O707      0.54409      .   S
    C221   O708      0.70324      .   S
    C213   O708      0.70324      .   S
    C221   O709      0.70298      .   S
    C225   O709      0.70298      .   S
    C223   O710      0.70324      .   S
    C215   O710      0.70324      .   S
    C223   O711      0.70290      .   S
    C227   O711      0.70290      .   S
    C217   O712      0.70323      .   S
    C209   O712      0.70323      .   S
    C217   O713      0.70280      .   S
    C229   O713      0.70280  1_655   S
    C219   O714      0.70323      .   S
    C211   O714      0.70323      .   S
    C219   O715      0.70285      .   S
    C231   O715      0.70285  1_655   S
    C267   O716      0.70171      .   S
    C259   O716      0.70171      .   S
    C267   O717      0.54478      .   S
    C115   O717      0.54478      .   S
    C269   O718      0.70220      .   S
    C261   O718      0.70220      .   S
    C269   O719      0.54480      .   S
    C117   O719      0.54480      .   S
    C265   O720      0.70171      .   S
    C257   O720      0.70171      .   S
    C265   O721      0.54483      .   S
    C113   O721      0.54483      .   S
    C271   O722      0.70171      .   S
    C263   O722      0.70171      .   S
    C271   O723      0.54478      .   S
    C119   O723      0.54478      .   S
    C79    O724      0.54370      .   S
    C231   O724      0.54370      .   S
    C77    O725      0.54370      .   S
    C229   O725      0.54370      .   S
    C75    O726      0.54370      .   S
    C227   O726      0.54370      .   S
    C73    O727      0.54370      .   S
    C225   O727      0.54370      .   S
    C213   O728      0.69340      .   S
    C205   O728      0.69340      .   S
    C209   O729      0.69341      .   S
    C201   O729      0.69341      .   S
    C215   O730      0.69343      .   S
    C207   O730      0.69343      .   S
    C211   O731      0.69343      .   S
    C203   O731      0.69343      .   S
    C261   O732      0.75483      .   S
    C253   O732      0.75483      .   S
    C257   O733      0.75284      .   S
    C249   O733      0.75284      .   S
    C263   O734      0.75280      .   S
    C255   O734      0.75280      .   S
    C259   O735      0.75281      .   S
    C251   O735      0.75281      .   S
    C225   O736      0.69442      .   S
    C237   O736      0.69442      .   S
    C227   O737      0.69444      .   S
    C239   O737      0.69444      .   S
    C229   O738      0.69432  1_655   S
    C233   O738      0.69432      .   S
    C231   O739      0.69433  1_655   S
    C235   O739      0.69433      .   S
    C201   O740      0.54463      .   S
    C33    O740      0.54463      .   S
    C201   O741      0.67506      .   S
    C353   O741      0.67506      .   S
    C205   O742      0.54471      .   S
    C37    O742      0.54471      .   S
    C205   O743      0.67498      .   S
    C357   O743      0.67498      .   S
    C203   O744      0.54471      .   S
    C35    O744      0.54471      .   S
    C203   O745      0.67502      .   S
    C355   O745      0.67502      .   S
    C207   O746      0.54471      .   S
    C39    O746      0.54471      .   S
    C207   O747      0.67501      .   S
    C359   O747      0.67501      .   S
    C239   O748      0.67456      .   S
    C359   O748      0.67456      .   S
    C239   O749      0.54442      .   S
    C63    O749      0.54442      .   S
    C235   O750      0.67456      .   S
    C355   O750      0.67456      .   S
    C235   O751      0.54434      .   S
    C59    O751      0.54434  1_655   S
    C233   O752      0.67456      .   S
    C353   O752      0.67456      .   S
    C233   O753      0.54440      .   S
    C57    O753      0.54440  1_655   S
    C237   O754      0.67455      .   S
    C357   O754      0.67455      .   S
    C237   O755      0.54441      .   S
    C61    O755      0.54441      .   S
    C251   O756      0.63430      .   S
    C411   O756      0.63430      .   S
    C251   O757      0.63958      .   S
    C403   O757      0.63958      .   S
    C255   O758      0.63431      .   S
    C415   O758      0.63431      .   S
    C255   O759      0.63958      .   S
    C407   O759      0.63958      .   S
    C253   O760      0.63430      .   S
    C413   O760      0.63430      .   S
    C253   O761      0.63960      .   S
    C405   O761      0.63960      .   S
    C249   O762      0.63431      .   S
    C409   O762      0.63431      .   S
    C249   O763      0.63955      .   S
    C401   O763      0.63955      .   S
    C409   O764      1.07304      .   S
    C1     O764      1.07304      .   S
    C415   O765      1.07306      .   S
    C7     O765      1.07306      .   S
    C413   O766      1.07308      .   S
    C5     O766      1.07308      .   S
    C411   O767      1.07309      .   S
    C3     O767      1.07309      .   S
    C357   O768      1.03326      .   S
    C5     O768      1.03326      .   S
    C355   O769      1.03319      .   S
    C3     O769      1.03319      .   S
    C359   O770      1.03321      .   S
    C7     O770      1.03321      .   S
    C353   O771      1.03320      .   S
    C1     O771      1.03320      .   S
    C405   O772      1.03652      .   S
    C13    O772      1.03652      .   S
    C407   O773      1.03652      .   S
    C15    O773      1.03652      .   S
    C403   O774      1.03601      .   S
    C11    O774      1.03601      .   S
    C401   O775      1.03651      .   S
    C9     O775      1.03651      .   S
    C27    O776      0.54454      .   S
    C195   O776      0.54454      .   S
    C29    O777      0.54455      .   S
    C197   O777      0.54455      .   S
    C31    O778      0.54454      .   S
    C199   O778      0.54454      .   S
    C25    O779      0.54452      .   S
    C193   O779      0.54452      .   S
    C85    O780      0.54474      .   S
    C293   O780      0.54474      .   S
    C87    O781      0.54415      .   S
    C295   O781      0.54415      .   S
    C83    O782      0.54423      .   S
    C291   O782      0.54423      .   S
    C81    O783      0.54418      .   S
    C289   O783      0.54418      .   S
    C385   O784      1.03365      .   S
    C1     O784      1.03365      .   S
    C385   O785      0.63755      .   S
    C177   O785      0.63755      .   S
    C391   O786      1.03337      .   S
    C7     O786      1.03337      .   S
    C391   O787      0.63729      .   S
    C183   O787      0.63729      .   S
    C389   O788      1.03337      .   S
    C5     O788      1.03337      .   S
    C389   O789      0.63725      .   S
    C181   O789      0.63725      .   S
    C387   O790      1.03337      .   S
    C3     O790      1.03337      .   S
    C387   O791      0.63730      .   S
    C179   O791      0.63730      .   S
    C1     O792      1.02208      .   S
    C425   O792      1.02208      .   S
    C1     O793      1.03681      .   S
    C369   O793      1.03681      .   S
    C7     O794      1.02208      .   S
    C431   O794      1.02208      .   S
    C7     O795      1.03636      .   S
    C375   O795      1.03636      .   S
    C5     O796      1.02207      .   S
    C429   O796      1.02207      .   S
    C5     O797      1.03635      .   S
    C373   O797      1.03635      .   S
    C3     O798      1.02209      .   S
    C427   O798      1.02209      .   S
    C3     O799      1.03680      .   S
    C371   O799      1.03680      .   S
    C199   O800      0.69567      .   S
    C293   O800      0.69567      .   S
    C199   O801      0.70194      .   S
    C247   O801      0.70194      .   S
    C197   O802      0.69557  1_545   S
    C295   O802      0.69557      .   S
    C197   O803      0.70194      .   S
    C245   O803      0.70194      .   S
    C195   O804      0.69567      .   S
    C289   O804      0.69567      .   S
    C195   O805      0.70195      .   S
    C243   O805      0.70195      .   S
    C193   O806      0.69552  1_545   S
    C291   O806      0.69552      .   S
    C193   O807      0.70197      .   S
    C241   O807      0.70197      .   S
    C295   O808      0.70151  1_655   S
    C347   O808      0.70151      .   S
    C293   O809      0.70151  1_655   S
    C345   O809      0.70151      .   S
    C291   O810      0.70171      .   S
    C351   O810      0.70171      .   S
    C289   O811      0.70172      .   S
    C349   O811      0.70172      .   S
    C429   O812      0.63790      .   S
    C285   O812      0.63790      .   S
    C431   O813      0.63787      .   S
    C287   O813      0.63787      .   S
    C427   O814      0.63785      .   S
    C283   O814      0.63785      .   S
    C425   O815      0.63792      .   S
    C281   O815      0.63792      .   S
    C181   O816      0.75000      .   S
    C245   O816      0.75000      .   S
    C181   O817      0.63792      .   S
    C397   O817      0.63792      .   S
    C183   O818      0.75006      .   S
    C247   O818      0.75006      .   S
    C183   O819      0.63784      .   S
    C399   O819      0.63784      .   S
    C179   O820      0.75007      .   S
    C243   O820      0.75007      .   S
    C179   O821      0.63784      .   S
    C395   O821      0.63784      .   S
    C177   O822      0.75005      .   S
    C241   O822      0.75005      .   S
    C177   O823      0.63781      .   S
    C393   O823      0.63781      .   S
    C241   O824      0.70151      .   S
    C189   O824      0.70151      .   S
    C243   O825      0.70168      .   S
    C191   O825      0.70168      .   S
    C247   O826      0.70146      .   S
    C187   O826      0.70146  1_455   S
    C245   O827      0.70144      .   S
    C185   O827      0.70144  1_455   S
    C347   O828      0.75012      .   S
    C283   O828      0.75012      .   S
    C347   O829      0.70196      .   S
    C299   O829      0.70196      .   S
    C349   O830      0.75013      .   S
    C285   O830      0.75013      .   S
    C349   O831      0.70190      .   S
    C301   O831      0.70190      .   S
    C345   O832      0.75011      .   S
    C281   O832      0.75011      .   S
    C345   O833      0.70190      .   S
    C297   O833      0.70190      .   S
    C351   O834      0.75014      .   S
    C287   O834      0.75014      .   S
    C351   O835      0.70189      .   S
    C303   O835      0.70189      .   S
    C287   O836      0.63728      .   S
    C423   O836      0.63728      .   S
    C281   O837      0.63726      .   S
    C417   O837      0.63726      .   S
    C283   O838      0.63716      .   S
    C419   O838      0.63716      .   S
    C285   O839      0.63714      .   S
    C421   O839      0.63714      .   S
    C393   O840      1.02313      .   S
    C9     O840      1.02313      .   S
    C395   O841      1.02271      .   S
    C11    O841      1.02271      .   S
    C397   O842      1.02313      .   S
    C13    O842      1.02313      .   S
    C399   O843      1.02313      .   S
    C15    O843      1.02313      .   S
    C189   O844      0.69527      .   S
    C303   O844      0.69527  1_565   S
    C189   O845      0.54452      .   S
    C21    O845      0.54452      .   S
    C185   O846      0.69543      .   S
    C299   O846      0.69543  1_565   S
    C185   O847      0.54417      .   S
    C17    O847      0.54417      .   S
    C191   O848      0.69560      .   S
    C301   O848      0.69560      .   S
    C191   O849      0.54414      .   S
    C23    O849      0.54414      .   S
    C187   O850      0.69560      .   S
    C297   O850      0.69560      .   S
    C187   O851      0.54411      .   S
    C19    O851      0.54411      .   S
    C303   O852      0.54452      .   S
    C95    O852      0.54452      .   S
    C297   O853      0.54453      .   S
    C89    O853      0.54453      .   S
    C301   O854      0.54451      .   S
    C93    O854      0.54451      .   S
    C299   O855      0.54431      .   S
    C91    O855      0.54431      .   S
    C11    O856      1.03307      .   S
    C419   O856      1.03307      .   S
    C11    O857      1.03353      .   S
    C363   O857      1.03353      .   S
    C11    O858      1.07231      .   S
    C379   O858      1.07231      .   S
    C9     O859      1.03296      .   S
    C417   O859      1.03296      .   S
    C9     O860      1.03295      .   S
    C361   O860      1.03295      .   S
    C9     O861      1.07195      .   S
    C377   O861      1.07195      .   S
    C13    O862      1.03284      .   S
    C421   O862      1.03284      .   S
    C13    O863      1.03293      .   S
    C365   O863      1.03293      .   S
    C13    O864      1.07195      .   S
    C381   O864      1.07195      .   S
    C15    O865      1.03295      .   S
    C423   O865      1.03295      .   S
    C15    O866      1.03292      .   S
    C367   O866      1.03292      .   S
    C15    O867      1.07195      .   S
    C383   O867      1.07195      .   S
    C375   O868      0.64001      .   S
    C151   O868      0.64001      .   S
    C373   O869      0.64005      .   S
    C149   O869      0.64005      .   S
    C371   O870      0.63953      .   S
    C147   O870      0.63953      .   S
    C369   O871      0.63954      .   S
    C145   O871      0.63954      .   S
    C123   O872      0.54466      .   S
    C339   O872      0.54466      .   S
    C125   O873      0.53903  1_455   S
    C341   O873      0.53903      .   S
    C127   O874      0.53905  1_455   S
    C343   O874      0.53905      .   S
    C121   O875      0.54430      .   S
    C337   O875      0.54430      .   S
    C365   O876      0.67453      .   S
    C341   O876      0.67453      .   S
    C365   O877      0.67495      .   S
    C309   O877      0.67495      .   S
    C363   O878      0.67453      .   S
    C339   O878      0.67453      .   S
    C363   O879      0.67502      .   S
    C307   O879      0.67502      .   S
    C367   O880      0.67454      .   S
    C343   O880      0.67454      .   S
    C367   O881      0.67498      .   S
    C311   O881      0.67498      .   S
    C361   O882      0.67454      .   S
    C337   O882      0.67454      .   S
    C361   O883      0.67494      .   S
    C305   O883      0.67494      .   S
    C383   O884      0.63436      .   S
    C151   O884      0.63436      .   S
    C377   O885      0.63435      .   S
    C145   O885      0.63435      .   S
    C379   O886      0.63436      .   S
    C147   O886      0.63436      .   S
    C381   O887      0.63436      .   S
    C149   O887      0.63436      .   S
    C101   O888      0.54485      .   S
    C309   O888      0.54485      .   S
    C99    O889      0.54475      .   S
    C307   O889      0.54475      .   S
    C97    O890      0.54473      .   S
    C305   O890      0.54473      .   S
    C103   O891      0.54474      .   S
    C311   O891      0.54474      .   S
    C151   O892      0.75262      .   S
    C159   O892      0.75262      .   S
    C147   O893      0.75264      .   S
    C155   O893      0.75264      .   S
    C145   O894      0.75246      .   S
    C153   O894      0.75246      .   S
    C149   O895      0.75261      .   S
    C157   O895      0.75261      .   S
    C341   O896      0.69428      .   S
    C329   O896      0.69428  1_455   S
    C337   O897      0.69438      .   S
    C333   O897      0.69438      .   S
    C339   O898      0.69437      .   S
    C335   O898      0.69437      .   S
    C343   O899      0.69426      .   S
    C331   O899      0.69426  1_455   S
    C305   O900      0.69304      .   S
    C313   O900      0.69304      .   S
    C307   O901      0.69342      .   S
    C315   O901      0.69342      .   S
    C309   O902      0.69342      .   S
    C317   O902      0.69342      .   S
    C311   O903      0.69341      .   S
    C319   O903      0.69341      .   S
    C55    O904      0.54483      .   S
    C167   O904      0.54483      .   S
    C53    O905      0.54480      .   S
    C165   O905      0.54480      .   S
    C51    O906      0.54482      .   S
    C163   O906      0.54482      .   S
    C49    O907      0.54486      .   S
    C161   O907      0.54486      .   S
    C329   O908      0.54366      .   S
    C137   O908      0.54366      .   S
    C329   O909      0.70271  1_455   S
    C325   O909      0.70271      .   S
    C335   O910      0.54365      .   S
    C143   O910      0.54365      .   S
    C335   O911      0.70277      .   S
    C323   O911      0.70277      .   S
    C333   O912      0.54366      .   S
    C141   O912      0.54366      .   S
    C333   O913      0.70278      .   S
    C321   O913      0.70278      .   S
    C331   O914      0.54365      .   S
    C139   O914      0.54365      .   S
    C331   O915      0.70276  1_455   S
    C327   O915      0.70276      .   S
    C153   O916      0.70160      .   S
    C161   O916      0.70160      .   S
    C153   O917      0.70262      .   S
    C169   O917      0.70262      .   S
    C155   O918      0.70164      .   S
    C163   O918      0.70164      .   S
    C155   O919      0.70237      .   S
    C171   O919      0.70237      .   S
    C157   O920      0.70165      .   S
    C165   O920      0.70165      .   S
    C157   O921      0.70239      .   S
    C173   O921      0.70239      .   S
    C159   O922      0.70164      .   S
    C167   O922      0.70164      .   S
    C159   O923      0.70237      .   S
    C175   O923      0.70237      .   S
    C313   O924      0.70333      .   S
    C321   O924      0.70333      .   S
    C313   O925      0.54445      .   S
    C105   O925      0.54445      .   S
    C319   O926      0.70330      .   S
    C327   O926      0.70330      .   S
    C319   O927      0.54406      .   S
    C111   O927      0.54406      .   S
    C317   O928      0.70329      .   S
    C325   O928      0.70329      .   S
    C317   O929      0.54411      .   S
    C109   O929      0.54411      .   S
    C315   O930      0.70329      .   S
    C323   O930      0.70329      .   S
    C315   O931      0.54400      .   S
    C107   O931      0.54400      .   S
    C67    O932      0.54460      .   S
    C171   O932      0.54460      .   S
    C71    O933      0.54462      .   S
    C175   O933      0.54462      .   S
    C65    O934      0.54471      .   S
    C169   O934      0.54471      .   S
    C69    O935      0.54471      .   S
    C173   O935      0.54471      .   S
    C0     O936      1.45908      .   S
    C8     O936      1.45908      .   S
    C1     O937      1.45903      .   S
    C9     O937      1.45903      .   S
    C2     O938      1.45903      .   S
    C10    O938      1.45903      .   S
    C3     O939      1.45868      .   S
    C11    O939      1.45868      .   S
    C4     O940      1.45904      .   S
    C12    O940      1.45904      .   S
    C5     O941      1.45908      .   S
    C13    O941      1.45908      .   S
    C6     O942      1.45907      .   S
    C14    O942      1.45907      .   S
    C7     O943      1.45905      .   S
    C15    O943      1.45905      .   S
