# CIF file generated by openbabel 2.4.90, see http://openbabel.sf.net
data_I
_chemical_name_common ''
_cell_length_a 12.318
_cell_length_b 21.045
_cell_length_c 16.643
_cell_angle_alpha 71.59
_cell_angle_beta 83.891
_cell_angle_gamma 90.005
_space_group_name_H-M_alt 'P 1'
_space_group_name_Hall 'P 1'
loop_
    _symmetry_equiv_pos_as_xyz
    x,y,z
loop_
    _atom_site_label
    _atom_site_type_symbol
    _atom_site_fract_x
    _atom_site_fract_y
    _atom_site_fract_z
    _atom_site_occupancy
    H0      H    0.14998   0.17129   0.76014   1.000
    H1      H    0.14999   0.67129   0.76014   1.000
    H2      H    0.65000   0.17129   0.76014   1.000
    H3      H    0.65000   0.67129   0.76014   1.000
    H4      H    0.09999   0.05106   0.23990   1.000
    H5      H    0.10000   0.55105   0.23995   1.000
    H6      H    0.60001   0.05106   0.23990   1.000
    H7      H    0.60001   0.55105   0.23995   1.000
    H8      H    0.38387   0.12701   0.78150   1.000
    H9      H    0.38388   0.62701   0.78150   1.000
    H10     H    0.88389   0.12701   0.78154   1.000
    H11     H    0.88389   0.62701   0.78150   1.000
    H12     H    0.46920   0.06544   0.76257   1.000
    H13     H    0.46921   0.56544   0.76257   1.000
    H14     H    0.96922   0.06544   0.76257   1.000
    H15     H    0.96922   0.56544   0.76257   1.000
    H16     H    0.02156   0.09162   0.63349   1.000
    H17     H    0.02156   0.59162   0.63349   1.000
    H18     H    0.52158   0.09162   0.63349   1.000
    H19     H    0.52158   0.59162   0.63349   1.000
    H20     H    0.43027   0.15635   0.59958   1.000
    H21     H    0.43027   0.65635   0.59958   1.000
    H22     H    0.93028   0.15635   0.59958   1.000
    H23     H    0.93029   0.65635   0.59958   1.000
    H24     H    0.22861   0.40831   0.36677   1.000
    H25     H    0.22862   0.90831   0.36677   1.000
    H26     H    0.72863   0.40831   0.36677   1.000
    H27     H    0.72863   0.90831   0.36677   1.000
    H28     H    0.31980   0.45623   0.40060   1.000
    H29     H    0.31980   0.95623   0.40060   1.000
    H30     H    0.81981   0.45623   0.40060   1.000
    H31     H    0.81982   0.95623   0.40060   1.000
    H32     H    0.36615   0.01748   0.21860   1.000
    H33     H    0.36615   0.51748   0.21860   1.000
    H34     H    0.86617   0.01748   0.21860   1.000
    H35     H    0.86617   0.51748   0.21860   1.000
    H36     H    0.28066   0.44647   0.23765   1.000
    H37     H    0.28066   0.94647   0.23765   1.000
    H38     H    0.78068   0.44647   0.23765   1.000
    H39     H    0.78068   0.94647   0.23765   1.000
    H40     H    0.35004   0.32871   0.23985   1.000
    H41     H    0.35005   0.82871   0.23985   1.000
    H42     H    0.85006   0.32871   0.23985   1.000
    H43     H    0.85006   0.82871   0.23985   1.000
    H44     H    0.40003   0.44894   0.76004   1.000
    H45     H    0.40003   0.94894   0.76004   1.000
    H46     H    0.90005   0.44894   0.76004   1.000
    H47     H    0.90005   0.94894   0.76004   1.000
    H48     H    0.11615   0.37298   0.21845   1.000
    H49     H    0.11615   0.87298   0.21845   1.000
    H50     H    0.61617   0.37298   0.21845   1.000
    H51     H    0.61617   0.87298   0.21845   1.000
    H52     H    0.03082   0.43456   0.23742   1.000
    H53     H    0.03083   0.93456   0.23742   1.000
    H54     H    0.53084   0.43456   0.23742   1.000
    H55     H    0.53084   0.93455   0.23742   1.000
    H56     H    0.47846   0.40837   0.36650   1.000
    H57     H    0.47846   0.90837   0.36650   1.000
    H58     H    0.97847   0.40837   0.36650   1.000
    H59     H    0.97847   0.90837   0.36650   1.000
    H60     H    0.06975   0.34365   0.40041   1.000
    H61     H    0.06975   0.84365   0.40041   1.000
    H62     H    0.56977   0.34365   0.40041   1.000
    H63     H    0.56977   0.84365   0.40041   1.000
    H64     H    0.27140   0.09168   0.63322   1.000
    H65     H    0.27141   0.59168   0.63322   1.000
    H66     H    0.77142   0.09168   0.63322   1.000
    H67     H    0.77142   0.59168   0.63322   1.000
    H68     H    0.18022   0.04376   0.59939   1.000
    H69     H    0.18022   0.54376   0.59939   1.000
    H70     H    0.68024   0.04376   0.59939   1.000
    H71     H    0.68024   0.54376   0.59939   1.000
    H72     H    0.13387   0.48252   0.78100   1.000
    H73     H    0.13387   0.98252   0.78139   1.000
    H74     H    0.63389   0.48252   0.78100   1.000
    H75     H    0.63389   0.98252   0.78139   1.000
    H76     H    0.21936   0.05352   0.76234   1.000
    H77     H    0.21937   0.55352   0.76234   1.000
    H78     H    0.71938   0.05352   0.76234   1.000
    H79     H    0.71938   0.55352   0.76234   1.000
    C80     C    0.47019   0.11416   0.77418   1.000
    C81     C    0.47020   0.61416   0.77418   1.000
    C82     C    0.97021   0.11416   0.77418   1.000
    C83     C    0.97021   0.61416   0.77418   1.000
    C84     C    0.01378   0.14612   0.61669   1.000
    C85     C    0.01378   0.64612   0.61669   1.000
    C86     C    0.51379   0.14612   0.61669   1.000
    C87     C    0.51380   0.64612   0.61669   1.000
    C88     C    0.23630   0.45448   0.38346   1.000
    C89     C    0.23630   0.95448   0.38346   1.000
    C90     C    0.73632   0.45448   0.38346   1.000
    C91     C    0.73632   0.95448   0.38346   1.000
    C92     C    0.27980   0.50100   0.22598   1.000
    C93     C    0.27980   0.00000   0.22598   1.000
    C94     C    0.77981   0.50100   0.22598   1.000
    C95     C    0.77982   0.00000   0.22598   1.000
    C96     C    0.02983   0.38584   0.22582   1.000
    C97     C    0.02983   0.88583   0.22582   1.000
    C98     C    0.52984   0.38584   0.22582   1.000
    C99     C    0.52985   0.88583   0.22582   1.000
    C100    C    0.48624   0.35387   0.38330   1.000
    C101    C    0.48624   0.85387   0.38330   1.000
    C102    C    0.98625   0.35387   0.38330   1.000
    C103    C    0.98626   0.85387   0.38330   1.000
    C104    C    0.26372   0.04552   0.61653   1.000
    C105    C    0.26372   0.54552   0.61653   1.000
    C106    C    0.76373   0.04552   0.61653   1.000
    C107    C    0.76374   0.54552   0.61653   1.000
    C108    C    0.22022   0.99899   0.77402   1.000
    C109    C    0.22023   0.49899   0.77402   1.000
    C110    C    0.72024   0.99899   0.77402   1.000
    C111    C    0.72024   0.49899   0.77402   1.000
    O112    O    0.14366   0.17493   0.70002   1.000
    O113    O    0.14367   0.67493   0.70002   1.000
    O114    O    0.64368   0.17493   0.70002   1.000
    O115    O    0.64368   0.67493   0.70002   1.000
    O116    O    0.10633   0.02478   0.30011   1.000
    O117    O    0.10634   0.52478   0.30011   1.000
    O118    O    0.60635   0.02478   0.30011   1.000
    O119    O    0.60635   0.52478   0.30011   1.000
    O120    O    0.35636   0.32507   0.29997   1.000
    O121    O    0.35636   0.82506   0.29997   1.000
    O122    O    0.85638   0.32507   0.29997   1.000
    O123    O    0.85638   0.82506   0.29997   1.000
    O124    O    0.39369   0.47522   0.69989   1.000
    O125    O    0.39369   0.97522   0.69989   1.000
    O126    O    0.89370   0.47522   0.69989   1.000
    O127    O    0.89371   0.97522   0.69989   1.000
loop_
    _geom_bond_atom_site_label_1
    _geom_bond_atom_site_label_2
    _geom_bond_distance
    _geom_bond_site_symmetry_2
    _ccdc_geom_bond_type
    H51    C99       1.10094      .   S
    H50    C98       1.10094      .   S
    H49    C97       1.10094      .   S
    H48    C96       1.10094      .   S
    H32    C93       1.10692      .   S
    H33    C92       1.10090      .   S
    H34    C95       1.10692      .   S
    H35    C94       1.10090      .   S
    C99    H55       1.10191      .   S
    C98    H54       1.10192      .   S
    C97    H53       1.10194      .   S
    C96    H52       1.10191      .   S
    C92    H36       1.10206      .   S
    C95    H39       1.08128  1_545   S
    C93    H37       1.08128  1_545   S
    C94    H38       1.10206      .   S
    H43    O123      0.99056      .   S
    H42    O122      0.99056      .   S
    H41    O121      0.99056      .   S
    H40    O120      0.99056      .   S
    H4     O116      0.99133      .   S
    H6     O118      0.99133      .   S
    H5     O117      0.99063      .   S
    H7     O119      0.99063      .   S
    H56    C100      1.09820      .   S
    H57    C101      1.09820      .   S
    H58    C102      1.09820      .   S
    H59    C103      1.09820      .   S
    H26    C90       1.09816      .   S
    H24    C88       1.09816      .   S
    H25    C89       1.09818      .   S
    H27    C91       1.09818      .   S
    C103   H61       1.09949  1_655   S
    C102   H60       1.09949  1_655   S
    C101   H63       1.09983      .   S
    C100   H62       1.09983      .   S
    C88    H28       1.09988      .   S
    C91    H31       1.09988      .   S
    C90    H30       1.09988      .   S
    C89    H29       1.09988      .   S
    H70    C106      1.09988      .   S
    H71    C107      1.09988      .   S
    H69    C105      1.09988      .   S
    H68    C104      1.09988      .   S
    H20    C86       1.09982      .   S
    H21    C87       1.09982      .   S
    H22    C84       1.09949  1_655   S
    H23    C85       1.09949  1_655   S
    C107   H67       1.09816      .   S
    C106   H66       1.09816      .   S
    C105   H65       1.09816      .   S
    C104   H64       1.09816      .   S
    C85    H17       1.09817      .   S
    C84    H16       1.09817      .   S
    C86    H18       1.09817      .   S
    C87    H19       1.09817      .   S
    O127   H47       0.99048      .   S
    O124   H44       0.99049      .   S
    O125   H45       0.99048      .   S
    O126   H46       0.99049      .   S
    O114   H2        0.99056      .   S
    O113   H1        0.99056      .   S
    O112   H0        0.99056      .   S
    O115   H3        0.99056      .   S
    H76    C108      1.10201  1_545   S
    H77    C109      1.10203      .   S
    H78    C110      1.10201  1_545   S
    H79    C111      1.10203      .   S
    H15    C83       1.10199      .   S
    H14    C82       1.10199      .   S
    H13    C81       1.10199      .   S
    H12    C80       1.10199      .   S
    C111   H74       1.10153      .   S
    C110   H75       1.10087      .   S
    C109   H72       1.10153      .   S
    C108   H73       1.10087      .   S
    C83    H11       1.10087      .   S
    C82    H10       1.10093      .   S
    C81    H9        1.10087      .   S
    C80    H8        1.10087      .   S
