# CIF file generated by openbabel 2.4.90, see http://openbabel.sf.net
data_I
_chemical_name_common ''
_cell_length_a 12.318
_cell_length_b 21.045
_cell_length_c 16.643
_cell_angle_alpha 71.59
_cell_angle_beta 83.891
_cell_angle_gamma 90.005
_space_group_name_H-M_alt 'P 1'
_space_group_name_Hall 'P 1'
loop_
    _symmetry_equiv_pos_as_xyz
    x,y,z
loop_
    _atom_site_label
    _atom_site_type_symbol
    _atom_site_fract_x
    _atom_site_fract_y
    _atom_site_fract_z
    _atom_site_occupancy
    C0      C    0.02819   0.16868   0.69472   1.000
    C1      C    0.02820   0.66868   0.69472   1.000
    C2      C    0.52821   0.16868   0.69472   1.000
    C3      C    0.52821   0.66868   0.69472   1.000
    C4      C    0.22182   0.01592   0.30538   1.000
    C5      C    0.22182   0.51592   0.30538   1.000
    C6      C    0.72183   0.01592   0.30538   1.000
    C7      C    0.72183   0.51592   0.30538   1.000
    C8      C    0.47183   0.33132   0.30528   1.000
    C9      C    0.47183   0.83132   0.30528   1.000
    C10     C    0.97184   0.33132   0.30528   1.000
    C11     C    0.97185   0.83132   0.30528   1.000
    C12     C    0.27821   0.48407   0.69462   1.000
    C13     C    0.27821   0.98407   0.69462   1.000
    C14     C    0.77822   0.48407   0.69462   1.000
    C15     C    0.77822   0.98407   0.69462   1.000
