# CIF file generated by openbabel 2.4.90, see http://openbabel.sf.net
data_I
_chemical_name_common ''
_cell_length_a 12.318
_cell_length_b 21.045
_cell_length_c 16.643
_cell_angle_alpha 71.59
_cell_angle_beta 83.891
_cell_angle_gamma 90.005
_space_group_name_H-M_alt 'P 1'
_space_group_name_Hall 'P 1'
loop_
    _symmetry_equiv_pos_as_xyz
    x,y,z
loop_
    _atom_site_label
    _atom_site_type_symbol
    _atom_site_fract_x
    _atom_site_fract_y
    _atom_site_fract_z
    _atom_site_occupancy
    C0      C    0.72159   0.92165   0.68272   1.000
    C1      C    0.01398   0.10095   0.85882   1.000
    C2      C    0.01398   0.60095   0.85882   1.000
    C3      C    0.51399   0.10095   0.85882   1.000
    C4      C    0.51400   0.60095   0.85882   1.000
    C5      C    0.08960   0.17770   0.53564   1.000
    C6      C    0.08961   0.67770   0.53564   1.000
    C7      C    0.58962   0.17770   0.53564   1.000
    C8      C    0.58962   0.67770   0.53564   1.000
    C9      C    0.47153   0.23703   0.68270   1.000
    C10     C    0.47154   0.73703   0.68270   1.000
    C11     C    0.97155   0.23703   0.68274   1.000
    C12     C    0.97155   0.73703   0.68270   1.000
    C13     C    0.16045   0.44563   0.46448   1.000
    C14     C    0.16045   0.94563   0.46448   1.000
    C15     C    0.66047   0.44563   0.46448   1.000
    C16     C    0.66047   0.94563   0.46448   1.000
    C17     C    0.23599   0.03004   0.14134   1.000
    C18     C    0.23599   0.53004   0.14134   1.000
    C19     C    0.73600   0.03004   0.14134   1.000
    C20     C    0.73601   0.53004   0.14134   1.000
    C21     C    0.27845   0.07834   0.31728   1.000
    C22     C    0.27846   0.57834   0.31728   1.000
    C23     C    0.77847   0.07834   0.31728   1.000
    C24     C    0.77847   0.57834   0.31728   1.000
    C25     C    0.48605   0.39905   0.14117   1.000
    C26     C    0.48605   0.89905   0.14117   1.000
    C27     C    0.98606   0.39905   0.14117   1.000
    C28     C    0.98606   0.89905   0.14117   1.000
    C29     C    0.41042   0.32230   0.46436   1.000
    C30     C    0.41042   0.82230   0.46436   1.000
    C31     C    0.91043   0.32230   0.46436   1.000
    C32     C    0.91044   0.82230   0.46436   1.000
    C33     C    0.02849   0.26296   0.31725   1.000
    C34     C    0.02849   0.76296   0.31725   1.000
    C35     C    0.52850   0.26296   0.31725   1.000
    C36     C    0.52851   0.76296   0.31725   1.000
    C37     C    0.33957   0.05437   0.53551   1.000
    C38     C    0.33957   0.55437   0.53551   1.000
    C39     C    0.83958   0.05437   0.53551   1.000
    C40     C    0.83959   0.55437   0.53551   1.000
    C41     C    0.26404   0.46996   0.85860   1.000
    C42     C    0.26404   0.96995   0.85860   1.000
    C43     C    0.76405   0.46996   0.85860   1.000
    C44     C    0.76405   0.96995   0.85860   1.000
    C45     C    0.22157   0.42165   0.68272   1.000
    C46     C    0.22157   0.92165   0.68272   1.000
    C47     C    0.72158   0.42165   0.68272   1.000
