# CIF file generated by openbabel 2.4.90, see http://openbabel.sf.net
data_I
_chemical_name_common ''
_cell_length_a 12.318
_cell_length_b 21.045
_cell_length_c 16.643
_cell_angle_alpha 71.59
_cell_angle_beta 83.891
_cell_angle_gamma 90.005
_space_group_name_H-M_alt 'P 1'
_space_group_name_Hall 'P 1'
loop_
    _symmetry_equiv_pos_as_xyz
    x,y,z
loop_
    _atom_site_label
    _atom_site_type_symbol
    _atom_site_fract_x
    _atom_site_fract_y
    _atom_site_fract_z
    _atom_site_occupancy
    Zr0     Zr   0.37506   0.45213   0.99997   1.000
    Zr1     Zr   0.37506   0.95213   0.99997   1.000
    Zr2     Zr   0.87507   0.45213   0.99997   1.000
    Zr3     Zr   0.87508   0.95213   0.99997   1.000
    Zr4     Zr   0.02084   0.09187   0.39623   1.000
    Zr5     Zr   0.02084   0.59187   0.39623   1.000
    Zr6     Zr   0.52085   0.09187   0.39623   1.000
    Zr7     Zr   0.52085   0.59187   0.39623   1.000
    Zr8     Zr   0.22919   0.29006   0.60372   1.000
    Zr9     Zr   0.22919   0.79006   0.60372   1.000
    Zr10    Zr   0.72920   0.29006   0.60372   1.000
    Zr11    Zr   0.72921   0.79006   0.60372   1.000
    Zr12    Zr   0.12496   0.04787   0.30000   1.000
    Zr13    Zr   0.12497   0.54787   0.30000   1.000
    Zr14    Zr   0.62498   0.04787   0.30000   1.000
    Zr15    Zr   0.62498   0.54787   0.30000   1.000
    Zr16    Zr   0.47919   0.40812   0.60376   1.000
    Zr17    Zr   0.47919   0.90812   0.60376   1.000
    Zr18    Zr   0.97920   0.40812   0.60376   1.000
    Zr19    Zr   0.97920   0.90812   0.60376   1.000
    Zr20    Zr   0.27083   0.20993   0.39627   1.000
    Zr21    Zr   0.27084   0.70993   0.39627   1.000
    Zr22    Zr   0.77085   0.20993   0.39627   1.000
    Zr23    Zr   0.77085   0.70993   0.39627   1.000
    N24     N    0.22182   0.51592   0.30538   1.000
    O25     O    0.08338   0.54812   0.30910   1.000
    O26     O    0.10941   0.53712   0.28504   1.000
    N27     N    0.47183   0.83132   0.30528   1.000
    O28     O    0.33340   0.79719   0.30902   1.000
    N29     N    0.97184   0.33132   0.30528   1.000
    O30     O    0.83341   0.29719   0.30902   1.000
    N31     N    0.02819   0.16868   0.69472   1.000
    O32     O    0.16662   0.20280   0.69098   1.000
    N33     N    0.52821   0.16868   0.69472   1.000
    O34     O    0.66664   0.20280   0.69098   1.000
    N35     N    0.22182   0.01592   0.30538   1.000
    O36     O    0.08337   0.04812   0.30909   1.000
    O37     O    0.10941   0.03712   0.28503   1.000
    N38     N    0.47183   0.33132   0.30528   1.000
    O39     O    0.33340   0.29719   0.30902   1.000
    N40     N    0.77822   0.48407   0.69462   1.000
    O41     O    0.91666   0.45188   0.69090   1.000
    N42     N    0.72183   0.01592   0.30538   1.000
    O43     O    0.58339   0.04812   0.30909   1.000
    O44     O    0.60942   0.03712   0.28503   1.000
    N45     N    0.27821   0.48407   0.69462   1.000
    O46     O    0.41665   0.45188   0.69090   1.000
    N47     N    0.72183   0.51592   0.30538   1.000
    O48     O    0.60942   0.53712   0.28504   1.000
    O49     O    0.58339   0.54812   0.30910   1.000
    N50     N    0.77822   0.98407   0.69462   1.000
    O51     O    0.91667   0.95187   0.69090   1.000
    N52     N    0.97185   0.83132   0.30528   1.000
    O53     O    0.83342   0.79719   0.30902   1.000
    N54     N    0.52821   0.66868   0.69472   1.000
    O55     O    0.66664   0.70280   0.69098   1.000
    N56     N    0.02820   0.66868   0.69472   1.000
    O57     O    0.16663   0.70280   0.69098   1.000
    N58     N    0.27821   0.98407   0.69462   1.000
    O59     O    0.41665   0.95187   0.69090   1.000
    C60     C    0.72387   0.03692   0.11674   1.000
    O61     O    0.77629   0.00995   0.07767   1.000
    O62     O    0.75363   0.01921   0.16114   1.000
    O63     O    0.68150   0.04714   0.16628   1.000
    C64     C    0.61038   0.18531   0.51322   1.000
    O65     O    0.56525   0.16597   0.55480   1.000
    O66     O    0.58589   0.15177   0.47645   1.000
    O67     O    0.64739   0.22358   0.53777   1.000
    C68     C    0.47395   0.40444   0.11657   1.000
    O69     O    0.50370   0.39978   0.16096   1.000
    C70     C    0.61039   0.68531   0.51322   1.000
    O71     O    0.58590   0.65177   0.47645   1.000
    O72     O    0.56526   0.66597   0.55480   1.000
    O73     O    0.64739   0.72358   0.53777   1.000
    C74     C    0.97396   0.90444   0.11657   1.000
    O75     O    0.00370   0.89978   0.16096   1.000
    C76     C    0.63972   0.44206   0.48690   1.000
    O77     O    0.66417   0.39012   0.52364   1.000
    O78     O    0.60273   0.49257   0.46230   1.000
    O79     O    0.62876   0.48157   0.43824   1.000
    O80     O    0.68485   0.44346   0.44534   1.000
    C81     C    0.13970   0.94206   0.48690   1.000
    O82     O    0.16416   0.89012   0.52364   1.000
    O83     O    0.18484   0.94346   0.44534   1.000
    O84     O    0.10272   0.99257   0.46230   1.000
    O85     O    0.12875   0.98157   0.43824   1.000
    C86     C    0.77618   0.46308   0.88324   1.000
    O87     O    0.74642   0.48058   0.83881   1.000
    C88     C    0.27617   0.46308   0.88324   1.000
    O89     O    0.24641   0.48058   0.83881   1.000
    C90     C    0.29246   0.59303   0.32097   1.000
    O91     O    0.37182   0.58900   0.33769   1.000
    O92     O    0.26422   0.56228   0.31466   1.000
    O93     O    0.20580   0.60015   0.34280   1.000
    O94     O    0.23183   0.58915   0.31875   1.000
    O95     O    0.26830   0.62967   0.34281   1.000
    C96     C    0.22386   0.53691   0.11674   1.000
    O97     O    0.25362   0.51942   0.16114   1.000
    O98     O    0.18149   0.54714   0.16628   1.000
    O99     O    0.27627   0.50995   0.07767   1.000
    C100    C    0.95753   0.75355   0.67905   1.000
    O101    O    0.04419   0.77161   0.65720   1.000
    O102    O    0.98170   0.80112   0.65721   1.000
    O103    O    0.98578   0.71966   0.68538   1.000
    O104    O    0.87819   0.75788   0.66232   1.000
    C105    C    0.29246   0.09303   0.32097   1.000
    O106    O    0.37182   0.08900   0.33769   1.000
    O107    O    0.20579   0.10015   0.34280   1.000
    O108    O    0.23182   0.08915   0.31875   1.000
    O109    O    0.26829   0.12967   0.34281   1.000
    O110    O    0.26422   0.06228   0.31466   1.000
    C111    C    0.36032   0.05793   0.51310   1.000
    O112    O    0.31518   0.05653   0.55465   1.000
    O113    O    0.33587   0.10988   0.47636   1.000
    O114    O    0.39730   0.00743   0.53770   1.000
    C115    C    0.72387   0.53691   0.11674   1.000
    O116    O    0.75363   0.51942   0.16114   1.000
    O117    O    0.68150   0.54714   0.16628   1.000
    O118    O    0.77629   0.50995   0.07767   1.000
    C119    C    0.13970   0.44206   0.48690   1.000
    O120    O    0.18484   0.44346   0.44534   1.000
    O121    O    0.10272   0.49257   0.46230   1.000
    O122    O    0.12875   0.48157   0.43824   1.000
    O123    O    0.16415   0.39012   0.52364   1.000
    C124    C    0.22385   0.03692   0.11674   1.000
    O125    O    0.27627   0.00995   0.07767   1.000
    O126    O    0.18148   0.04714   0.16628   1.000
    O127    O    0.25362   0.01921   0.16114   1.000
    C128    C    0.54252   0.74644   0.32093   1.000
    O129    O    0.51426   0.78034   0.31460   1.000
    O130    O    0.45584   0.72839   0.34279   1.000
    O131    O    0.51835   0.69887   0.34278   1.000
    O132    O    0.62186   0.74211   0.33767   1.000
    C133    C    0.95752   0.25355   0.67906   1.000
    O134    O    0.04419   0.27161   0.65721   1.000
    O135    O    0.98169   0.30112   0.65722   1.000
    O136    O    0.98578   0.21966   0.68539   1.000
    O137    O    0.87818   0.25788   0.66233   1.000
    C138    C    0.63972   0.94206   0.48690   1.000
    O139    O    0.68485   0.94346   0.44534   1.000
    O140    O    0.66417   0.89012   0.52364   1.000
    O141    O    0.60274   0.99257   0.46230   1.000
    O142    O    0.62877   0.98157   0.43824   1.000
    C143    C    0.70758   0.40696   0.67903   1.000
    O144    O    0.73582   0.43772   0.68534   1.000
    O145    O    0.62822   0.41100   0.66230   1.000
    O146    O    0.73174   0.37032   0.65718   1.000
    O147    O    0.79424   0.39984   0.65719   1.000
    C148    C    0.54252   0.24644   0.32093   1.000
    O149    O    0.51835   0.19887   0.34278   1.000
    O150    O    0.45584   0.22839   0.34279   1.000
    O151    O    0.62186   0.24211   0.33767   1.000
    O152    O    0.51426   0.28034   0.31460   1.000
    C153    C    0.38966   0.81469   0.48678   1.000
    O154    O    0.43478   0.83402   0.44520   1.000
    O155    O    0.35265   0.77642   0.46223   1.000
    O156    O    0.41415   0.84823   0.52355   1.000
    C157    C    0.02609   0.59555   0.88343   1.000
    O158    O    0.97375   0.54897   0.92243   1.000
    O159    O    0.99634   0.60021   0.83903   1.000
    C160    C    0.11037   0.18531   0.51322   1.000
    O161    O    0.06524   0.16597   0.55480   1.000
    O162    O    0.08588   0.15177   0.47645   1.000
    O163    O    0.14737   0.22358   0.53777   1.000
    C164    C    0.38965   0.31469   0.48678   1.000
    O165    O    0.43478   0.33402   0.44520   1.000
    O166    O    0.41414   0.34823   0.52355   1.000
    O167    O    0.35265   0.27642   0.46223   1.000
    C168    C    0.36032   0.55793   0.51310   1.000
    O169    O    0.33587   0.60988   0.47636   1.000
    O170    O    0.39731   0.50743   0.53770   1.000
    O171    O    0.31519   0.55653   0.55465   1.000
    C172    C    0.88967   0.81469   0.48678   1.000
    O173    O    0.85267   0.77642   0.46223   1.000
    O174    O    0.93480   0.83402   0.44520   1.000
    O175    O    0.91416   0.84823   0.52355   1.000
    C176    C    0.97396   0.40444   0.11657   1.000
    O177    O    0.00370   0.39978   0.16096   1.000
    C178    C    0.52609   0.09555   0.88343   1.000
    O179    O    0.47374   0.04897   0.92243   1.000
    O180    O    0.49634   0.10022   0.83903   1.000
    C181    C    0.86034   0.55793   0.51310   1.000
    O182    O    0.89732   0.50743   0.53770   1.000
    O183    O    0.83589   0.60988   0.47636   1.000
    O184    O    0.81520   0.55653   0.55465   1.000
    C185    C    0.20756   0.40696   0.67903   1.000
    O186    O    0.12821   0.41100   0.66230   1.000
    O187    O    0.23173   0.37032   0.65718   1.000
    O188    O    0.29423   0.39984   0.65719   1.000
    O189    O    0.23581   0.43772   0.68534   1.000
    C190    C    0.45752   0.25355   0.67905   1.000
    O191    O    0.54419   0.27161   0.65720   1.000
    O192    O    0.48169   0.30112   0.65721   1.000
    O193    O    0.48578   0.21966   0.68538   1.000
    O194    O    0.37818   0.25788   0.66232   1.000
    C195    C    0.52609   0.59555   0.88343   1.000
    O196    O    0.47374   0.54897   0.92243   1.000
    O197    O    0.49634   0.60021   0.83903   1.000
    C198    C    0.86034   0.05793   0.51310   1.000
    O199    O    0.83588   0.10988   0.47636   1.000
    O200    O    0.81520   0.05653   0.55465   1.000
    O201    O    0.89732   0.00743   0.53770   1.000
    C202    C    0.11037   0.68531   0.51322   1.000
    O203    O    0.14738   0.72358   0.53777   1.000
    O204    O    0.08588   0.65177   0.47645   1.000
    O205    O    0.06525   0.66597   0.55480   1.000
    C206    C    0.20757   0.90696   0.67903   1.000
    O207    O    0.23581   0.93771   0.68534   1.000
    O208    O    0.23173   0.87032   0.65718   1.000
    O209    O    0.29423   0.89984   0.65719   1.000
    O210    O    0.12822   0.91100   0.66230   1.000
    C211    C    0.47395   0.90444   0.11657   1.000
    O212    O    0.50370   0.89978   0.16096   1.000
    C213    C    0.79247   0.09303   0.32097   1.000
    O214    O    0.76423   0.06228   0.31466   1.000
    O215    O    0.87182   0.08900   0.33769   1.000
    O216    O    0.70581   0.10015   0.34280   1.000
    O217    O    0.73184   0.08915   0.31875   1.000
    O218    O    0.76831   0.12967   0.34281   1.000
    C219    C    0.45752   0.75355   0.67905   1.000
    O220    O    0.54420   0.77161   0.65720   1.000
    O221    O    0.48169   0.80112   0.65721   1.000
    O222    O    0.37818   0.75788   0.66232   1.000
    O223    O    0.48578   0.71966   0.68538   1.000
    C224    C    0.04252   0.74644   0.32093   1.000
    O225    O    0.12185   0.74211   0.33767   1.000
    O226    O    0.01426   0.78034   0.31460   1.000
    O227    O    0.01835   0.69887   0.34278   1.000
    O228    O    0.95585   0.72839   0.34279   1.000
    C229    C    0.88967   0.31469   0.48678   1.000
    O230    O    0.93479   0.33402   0.44520   1.000
    O231    O    0.91416   0.34823   0.52355   1.000
    O232    O    0.85266   0.27642   0.46223   1.000
    C233    C    0.70758   0.90696   0.67903   1.000
    O234    O    0.62822   0.91100   0.66230   1.000
    O235    O    0.73582   0.93771   0.68534   1.000
    O236    O    0.73175   0.87032   0.65718   1.000
    O237    O    0.79425   0.89984   0.65719   1.000
    C238    C    0.27617   0.96308   0.88324   1.000
    O239    O    0.24641   0.98058   0.83884   1.000
    C240    C    0.04251   0.24644   0.32093   1.000
    O241    O    0.01834   0.19887   0.34278   1.000
    O242    O    0.95585   0.22839   0.34279   1.000
    O243    O    0.01426   0.28034   0.31460   1.000
    O244    O    0.12185   0.24211   0.33767   1.000
    C245    C    0.79247   0.59303   0.32097   1.000
    O246    O    0.76423   0.56228   0.31466   1.000
    O247    O    0.70581   0.60015   0.34280   1.000
    O248    O    0.73184   0.58915   0.31875   1.000
    O249    O    0.76831   0.62967   0.34281   1.000
    O250    O    0.87183   0.58900   0.33769   1.000
    C251    C    0.02608   0.09555   0.88343   1.000
    O252    O    0.97375   0.04897   0.92243   1.000
    O253    O    0.99634   0.10022   0.83903   1.000
    C254    C    0.77619   0.96308   0.88324   1.000
    O255    O    0.74642   0.98058   0.83884   1.000
    O256    O    0.59699   0.43313   0.51891   1.000
    O257    O    0.65309   0.19241   0.48118   1.000
    O258    O    0.59699   0.93313   0.51891   1.000
    O259    O    0.09698   0.43313   0.51891   1.000
    O260    O    0.40305   0.06686   0.48108   1.000
    O261    O    0.84696   0.80758   0.51882   1.000
    O262    O    0.84696   0.30758   0.51882   1.000
    O263    O    0.94772   0.41704   0.08434   1.000
    O264    O    0.30241   0.95948   0.91550   1.000
    O265    O    0.34694   0.30758   0.51882   1.000
    O266    O    0.09699   0.93313   0.51891   1.000
    O267    O    0.90306   0.56686   0.48108   1.000
    O268    O    0.90305   0.06686   0.48108   1.000
    O269    O    0.94773   0.91704   0.08434   1.000
    O270    O    0.80243   0.95948   0.91550   1.000
    O271    O    0.80242   0.45948   0.91550   1.000
    O272    O    0.15308   0.69241   0.48118   1.000
    O273    O    0.15308   0.19241   0.48118   1.000
    O274    O    0.40305   0.56686   0.48108   1.000
    O275    O    0.44772   0.41704   0.08434   1.000
    O276    O    0.65310   0.69241   0.48118   1.000
    O277    O    0.34695   0.80758   0.51882   1.000
    O278    O    0.44772   0.91704   0.08434   1.000
    O279    O    0.30241   0.45948   0.91550   1.000
loop_
    _geom_bond_atom_site_label_1
    _geom_bond_atom_site_label_2
    _geom_bond_distance
    _geom_bond_site_symmetry_2
    _ccdc_geom_bond_type
    N24    O25       1.83719      .   S
    Zr5    O25       2.03706      .   S
    N24    O26       1.49510      .   S
    Zr13   O26       0.44224      .   S
    N27    O28       1.83746      .   S
    Zr21   O28       2.03771      .   S
    N29    O30       1.83746      .   S
    Zr22   O30       2.03771      .   S
    N31    O32       1.83744      .   S
    Zr8    O32       2.03771      .   S
    N33    O34       1.83744      .   S
    Zr10   O34       2.03771      .   S
    N35    O36       1.83718      .   S
    Zr4    O36       2.03723      .   S
    N35    O37       1.49515      .   S
    Zr12   O37       0.44241      .   S
    N38    O39       1.83746      .   S
    Zr20   O39       2.03771      .   S
    N40    O41       1.83720      .   S
    Zr18   O41       2.03713      .   S
    N42    O43       1.83718      .   S
    Zr6    O43       2.03723      .   S
    N42    O44       1.49515      .   S
    Zr14   O44       0.44241      .   S
    N45    O46       1.83720      .   S
    Zr16   O46       2.03713      .   S
    N47    O48       1.49510      .   S
    Zr15   O48       0.44224      .   S
    N47    O49       1.83719      .   S
    Zr7    O49       2.03706      .   S
    N50    O51       1.83719      .   S
    Zr19   O51       2.03713      .   S
    N52    O53       1.83746      .   S
    Zr23   O53       2.03771      .   S
    N54    O55       1.83744      .   S
    Zr11   O55       2.03771      .   S
    N56    O57       1.83744      .   S
    Zr9    O57       2.03771      .   S
    N58    O59       1.83720      .   S
    Zr17   O59       2.03713      .   S
    C60    O61       1.14261      .   S
    Zr3    O61       2.30072  1_566   S
    C60    O62       0.83848      .   S
    N42    O62       2.36987      .   S
    C60    O63       1.00948      .   S
    Zr14   O63       2.26484      .   S
    C64    O65       0.83286      .   S
    N33    O65       2.34350      .   S
    C64    O66       1.12958      .   S
    Zr6    O66       2.30293      .   S
    C64    O67       1.12730      .   S
    Zr10   O67       2.32021      .   S
    C68    O69       0.83770      .   S
    N38    O69       2.36901      .   S
    C70    O71       1.12958      .   S
    Zr7    O71       2.30293      .   S
    C70    O72       0.83286      .   S
    N54    O72       2.34350      .   S
    C70    O73       1.12730      .   S
    Zr11   O73       2.32021      .   S
    C74    O75       0.83766  1_655   S
    N52    O75       2.36900  1_655   S
    C76    O77       1.12992      .   S
    Zr10   O77       2.30368      .   S
    C76    O78       1.12684      .   S
    Zr7    O78       2.31916      .   S
    C76    O79       0.98142      .   S
    Zr15   O79       2.28854      .   S
    C76    O80       0.83280      .   S
    N47    O80       2.34295      .   S
    C81    O82       1.12992      .   S
    Zr9    O82       2.30368      .   S
    C81    O83       0.83280      .   S
    N35    O83       2.34295  1_545   S
    C81    O84       1.12685      .   S
    Zr4    O84       2.31922  1_545   S
    C81    O85       0.98144      .   S
    Zr12   O85       2.28856  1_545   S
    C86    O87       0.83814      .   S
    N40    O87       2.36772      .   S
    C88    O89       0.83814      .   S
    N45    O89       2.36772      .   S
    C90    O91       1.04078      .   S
    Zr7    O91       2.17738      .   S
    C90    O92       0.77555      .   S
    N24    O92       1.16646      .   S
    C90    O93       1.11625      .   S
    Zr5    O93       2.34148      .   S
    C90    O94       0.75738      .   S
    Zr13   O94       1.68624      .   S
    C90    O95       0.98459      .   S
    Zr21   O95       2.14495      .   S
    C96    O97       0.83775      .   S
    N24    O97       2.36859      .   S
    C96    O98       1.00947      .   S
    Zr13   O98       2.26484      .   S
    C96    O99       1.14259      .   S
    Zr0    O99       2.30067  1_556   S
    C100   O101      1.11641  1_655   S
    Zr9    O101      2.34220      .   S
    C100   O102      0.98495      .   S
    Zr19   O102      2.14562      .   S
    C100   O103      0.77549      .   S
    N56    O103      1.16633  1_455   S
    C100   O104      1.04057      .   S
    Zr11   O104      2.17753      .   S
    C105   O106      1.04078      .   S
    Zr6    O106      2.17738      .   S
    C105   O107      1.11625      .   S
    Zr4    O107      2.34148      .   S
    C105   O108      0.75738      .   S
    Zr12   O108      1.68623      .   S
    C105   O109      0.98459      .   S
    Zr20   O109      2.14495      .   S
    C105   O110      0.77555      .   S
    N35    O110      1.16646      .   S
    C111   O112      0.83276      .   S
    N58    O112      2.34304  1_565   S
    C111   O113      1.12993      .   S
    Zr20   O113      2.30372      .   S
    C111   O114      1.12685      .   S
    Zr17   O114      2.31919  1_565   S
    C115   O116      0.83775      .   S
    N47    O116      2.36859      .   S
    C115   O117      1.00947      .   S
    Zr15   O117      2.26484      .   S
    C115   O118      1.14259      .   S
    Zr2    O118      2.30067  1_556   S
    C119   O120      0.83280      .   S
    N24    O120      2.34295      .   S
    C119   O121      1.12684      .   S
    Zr5    O121      2.31916      .   S
    C119   O122      0.98142      .   S
    Zr13   O122      2.28854      .   S
    C119   O123      1.12992      .   S
    Zr8    O123      2.30368      .   S
    C124   O125      1.14261      .   S
    Zr1    O125      2.30072  1_566   S
    C124   O126      1.00948      .   S
    Zr12   O126      2.26484      .   S
    C124   O127      0.83848      .   S
    N35    O127      2.36987      .   S
    C128   O129      0.77553      .   S
    N27    O129      1.16644      .   S
    C128   O130      1.11653      .   S
    Zr21   O130      2.34233      .   S
    C128   O131      0.98496      .   S
    Zr7    O131      2.14563      .   S
    C128   O132      1.04066      .   S
    Zr23   O132      2.17760      .   S
    C133   O134      1.11643  1_655   S
    Zr8    O134      2.34223      .   S
    C133   O135      0.98496      .   S
    Zr18   O135      2.14563      .   S
    C133   O136      0.77549      .   S
    N31    O136      1.16635  1_455   S
    C133   O137      1.04060      .   S
    Zr10   O137      2.17758      .   S
    C138   O139      0.83280      .   S
    N42    O139      2.34295  1_545   S
    C138   O140      1.12992      .   S
    Zr11   O140      2.30368      .   S
    C138   O141      1.12685      .   S
    Zr6    O141      2.31921  1_545   S
    C138   O142      0.98144      .   S
    Zr14   O142      2.28856  1_545   S
    C143   O144      0.77557      .   S
    N40    O144      1.16648      .   S
    C143   O145      1.04079      .   S
    Zr16   O145      2.17740      .   S
    C143   O146      0.98459      .   S
    Zr10   O146      2.14501      .   S
    C143   O147      1.11625      .   S
    Zr18   O147      2.34151      .   S
    C148   O149      0.98496      .   S
    Zr6    O149      2.14563      .   S
    C148   O150      1.11653      .   S
    Zr20   O150      2.34233      .   S
    C148   O151      1.04066      .   S
    Zr22   O151      2.17760      .   S
    C148   O152      0.77553      .   S
    N38    O152      1.16644      .   S
    C153   O154      0.83289      .   S
    N27    O154      2.34344      .   S
    C153   O155      1.12733      .   S
    Zr21   O155      2.32030      .   S
    C153   O156      1.12955      .   S
    Zr17   O156      2.30283      .   S
    C157   O158      1.14321  1_455   S
    Zr2    O158      2.30237      .   S
    C157   O159      0.83771  1_455   S
    N56    O159      2.36887  1_455   S
    C160   O161      0.83284      .   S
    N31    O161      2.34350      .   S
    C160   O162      1.12958      .   S
    Zr4    O162      2.30293      .   S
    C160   O163      1.12730      .   S
    Zr8    O163      2.32021      .   S
    C164   O165      0.83289      .   S
    N38    O165      2.34344      .   S
    C164   O166      1.12955      .   S
    Zr16   O166      2.30283      .   S
    C164   O167      1.12733      .   S
    Zr20   O167      2.32030      .   S
    C168   O169      1.12993      .   S
    Zr21   O169      2.30372      .   S
    C168   O170      1.12683      .   S
    Zr16   O170      2.31914      .   S
    C168   O171      0.83276      .   S
    N45    O171      2.34303      .   S
    C172   O173      1.12733      .   S
    Zr23   O173      2.32030      .   S
    C172   O174      0.83288      .   S
    N52    O174      2.34344      .   S
    C172   O175      1.12955      .   S
    Zr19   O175      2.30283      .   S
    C176   O177      0.83766  1_655   S
    N29    O177      2.36900  1_655   S
    C178   O179      1.14326      .   S
    Zr1    O179      2.30242  1_565   S
    C178   O180      0.83774      .   S
    N33    O180      2.36888      .   S
    C181   O182      1.12684      .   S
    Zr18   O182      2.31914      .   S
    C181   O183      1.12993      .   S
    Zr23   O183      2.30372      .   S
    C181   O184      0.83276      .   S
    N40    O184      2.34303      .   S
    C185   O186      1.04071      .   S
    Zr18   O186      2.17717  1_655   S
    C185   O187      0.98459      .   S
    Zr8    O187      2.14501      .   S
    C185   O188      1.11625      .   S
    Zr16   O188      2.34151      .   S
    C185   O189      0.77557      .   S
    N45    O189      1.16648      .   S
    C190   O191      1.11652      .   S
    Zr10   O191      2.34231      .   S
    C190   O192      0.98496      .   S
    Zr16   O192      2.14563      .   S
    C190   O193      0.77552      .   S
    N33    O193      1.16640      .   S
    C190   O194      1.04062      .   S
    Zr8    O194      2.17758      .   S
    C195   O196      1.14326      .   S
    Zr0    O196      2.30242      .   S
    C195   O197      0.83774      .   S
    N54    O197      2.36888      .   S
    C198   O199      1.12993      .   S
    Zr22   O199      2.30372      .   S
    C198   O200      0.83276      .   S
    N50    O200      2.34304  1_565   S
    C198   O201      1.12685      .   S
    Zr19   O201      2.31919  1_565   S
    C202   O203      1.12730      .   S
    Zr9    O203      2.32021      .   S
    C202   O204      1.12958      .   S
    Zr5    O204      2.30293      .   S
    C202   O205      0.83285      .   S
    N56    O205      2.34350      .   S
    C206   O207      0.77557      .   S
    N58    O207      1.16648      .   S
    C206   O208      0.98459      .   S
    Zr9    O208      2.14501      .   S
    C206   O209      1.11625      .   S
    Zr17   O209      2.34151      .   S
    C206   O210      1.04071      .   S
    Zr19   O210      2.17717  1_655   S
    C211   O212      0.83770      .   S
    N27    O212      2.36901      .   S
    C213   O214      0.77555      .   S
    N42    O214      1.16647      .   S
    C213   O215      1.04069      .   S
    Zr4    O215      2.17714  1_455   S
    C213   O216      1.11624      .   S
    Zr6    O216      2.34148      .   S
    C213   O217      0.75738      .   S
    Zr14   O217      1.68623      .   S
    C213   O218      0.98458      .   S
    Zr22   O218      2.14494      .   S
    C219   O220      1.11652      .   S
    Zr11   O220      2.34231      .   S
    C219   O221      0.98496      .   S
    Zr17   O221      2.14563      .   S
    C219   O222      1.04062      .   S
    Zr9    O222      2.17758      .   S
    C219   O223      0.77552      .   S
    N54    O223      1.16640      .   S
    C224   O225      1.04061      .   S
    Zr21   O225      2.17755      .   S
    C224   O226      0.77550      .   S
    N52    O226      1.16637  1_655   S
    C224   O227      0.98495      .   S
    Zr5    O227      2.14562      .   S
    C224   O228      1.11642  1_455   S
    Zr23   O228      2.34222      .   S
    C229   O230      0.83288      .   S
    N29    O230      2.34344      .   S
    C229   O231      1.12955      .   S
    Zr18   O231      2.30283      .   S
    C229   O232      1.12733      .   S
    Zr22   O232      2.32030      .   S
    C233   O234      1.04079      .   S
    Zr17   O234      2.17740      .   S
    C233   O235      0.77557      .   S
    N50    O235      1.16648      .   S
    C233   O236      0.98459      .   S
    Zr11   O236      2.14501      .   S
    C233   O237      1.11625      .   S
    Zr19   O237      2.34151      .   S
    C238   O239      0.83772      .   S
    N58    O239      2.36826      .   S
    C240   O241      0.98495      .   S
    Zr4    O241      2.14562      .   S
    C240   O242      1.11642  1_455   S
    Zr22   O242      2.34222      .   S
    C240   O243      0.77549      .   S
    N29    O243      1.16637  1_655   S
    C240   O244      1.04061      .   S
    Zr20   O244      2.17755      .   S
    C245   O246      0.77555      .   S
    N47    O246      1.16646      .   S
    C245   O247      1.11625      .   S
    Zr7    O247      2.34148      .   S
    C245   O248      0.75738      .   S
    Zr15   O248      1.68624      .   S
    C245   O249      0.98459      .   S
    Zr23   O249      2.14495      .   S
    C245   O250      1.04069      .   S
    Zr5    O250      2.17715  1_455   S
    C251   O252      1.14320  1_455   S
    Zr3    O252      2.30237  1_565   S
    C251   O253      0.83765  1_455   S
    N31    O253      2.36892  1_455   S
    C254   O255      0.83773      .   S
    N50    O255      2.36826      .   S
    C76    O256      0.68797      .   S
    Zr16   O256      1.86306      .   S
    Zr22   O257      1.86316      .   S
    C64    O257      0.68805      .   S
    Zr17   O258      1.86306      .   S
    C138   O258      0.68797      .   S
    Zr18   O259      1.86288  1_655   S
    C119   O259      0.68791      .   S
    Zr6    O260      1.86312      .   S
    C111   O260      0.68798      .   S
    Zr11   O261      1.86308      .   S
    C172   O261      0.68803      .   S
    C229   O262      0.68803      .   S
    Zr10   O262      1.86308      .   S
    C176   O263      0.63986      .   S
    Zr2    O263      1.71187  1_556   S
    C238   O264      0.64014      .   S
    Zr1    O264      1.71219      .   S
    Zr8    O265      1.86308      .   S
    C164   O265      0.68803      .   S
    Zr19   O266      1.86288  1_655   S
    C81    O266      0.68791      .   S
    Zr5    O267      1.86294  1_455   S
    C181   O267      0.68792      .   S
    Zr4    O268      1.86293  1_455   S
    C198   O268      0.68792      .   S
    Zr3    O269      1.71187  1_556   S
    C74    O269      0.63986      .   S
    Zr3    O270      1.71219      .   S
    C254   O270      0.64014      .   S
    Zr2    O271      1.71219      .   S
    C86    O271      0.64015      .   S
    Zr21   O272      1.86316      .   S
    C202   O272      0.68805      .   S
    Zr20   O273      1.86316      .   S
    C160   O273      0.68805      .   S
    C168   O274      0.68798      .   S
    Zr7    O274      1.86312      .   S
    C68    O275      0.63987      .   S
    Zr0    O275      1.71193  1_556   S
    Zr23   O276      1.86315      .   S
    C70    O276      0.68805      .   S
    Zr9    O277      1.86308      .   S
    C153   O277      0.68803      .   S
    C211   O278      0.63987      .   S
    Zr1    O278      1.71194  1_556   S
    Zr0    O279      1.71219      .   S
    C88    O279      0.64015      .   S
