# CIF file generated by openbabel 2.4.90, see http://openbabel.sf.net
data_I
_chemical_name_common ''
_cell_length_a 12.318
_cell_length_b 21.045
_cell_length_c 16.643
_cell_angle_alpha 71.59
_cell_angle_beta 83.891
_cell_angle_gamma 90.005
_space_group_name_H-M_alt 'P 1'
_space_group_name_Hall 'P 1'
loop_
    _symmetry_equiv_pos_as_xyz
    x,y,z
loop_
    _atom_site_label
    _atom_site_type_symbol
    _atom_site_fract_x
    _atom_site_fract_y
    _atom_site_fract_z
    _atom_site_occupancy
    Zr0     Zr   0.37506   0.45213   0.99997   1.000
    Zr1     Zr   0.37506   0.95213   0.99997   1.000
    Zr2     Zr   0.87507   0.45213   0.99997   1.000
    Zr3     Zr   0.87508   0.95213   0.99997   1.000
    Zr4     Zr   0.02084   0.09187   0.39623   1.000
    Zr5     Zr   0.02084   0.59187   0.39623   1.000
    Zr6     Zr   0.52085   0.09187   0.39623   1.000
    Zr7     Zr   0.52085   0.59187   0.39623   1.000
    Zr8     Zr   0.22919   0.29006   0.60372   1.000
    Zr9     Zr   0.22919   0.79006   0.60372   1.000
    Zr10    Zr   0.72920   0.29006   0.60372   1.000
    Zr11    Zr   0.72921   0.79006   0.60372   1.000
    Zr12    Zr   0.12496   0.04787   0.30000   1.000
    Zr13    Zr   0.12497   0.54787   0.30000   1.000
    Zr14    Zr   0.62498   0.04787   0.30000   1.000
    Zr15    Zr   0.62498   0.54787   0.30000   1.000
    Zr16    Zr   0.47919   0.40812   0.60376   1.000
    Zr17    Zr   0.47919   0.90812   0.60376   1.000
    Zr18    Zr   0.97920   0.40812   0.60376   1.000
    Zr19    Zr   0.97920   0.90812   0.60376   1.000
    Zr20    Zr   0.27083   0.20993   0.39627   1.000
    Zr21    Zr   0.27084   0.70993   0.39627   1.000
    Zr22    Zr   0.77085   0.20993   0.39627   1.000
    Zr23    Zr   0.77085   0.70993   0.39627   1.000
    Zr24    Zr   0.01398   0.10095   0.85882   1.000
    Zr25    Zr   0.01398   0.60095   0.85882   1.000
    Zr26    Zr   0.51399   0.10095   0.85882   1.000
    Zr27    Zr   0.51400   0.60095   0.85882   1.000
    Zr28    Zr   0.08960   0.17770   0.53564   1.000
    Zr29    Zr   0.08961   0.67770   0.53564   1.000
    Zr30    Zr   0.58962   0.17770   0.53564   1.000
    Zr31    Zr   0.58962   0.67770   0.53564   1.000
    Zr32    Zr   0.47153   0.23703   0.68270   1.000
    Zr33    Zr   0.47154   0.73703   0.68270   1.000
    Zr34    Zr   0.97155   0.23703   0.68274   1.000
    Zr35    Zr   0.97155   0.73703   0.68270   1.000
    Zr36    Zr   0.16045   0.44563   0.46448   1.000
    Zr37    Zr   0.16045   0.94563   0.46448   1.000
    Zr38    Zr   0.66047   0.44563   0.46448   1.000
    Zr39    Zr   0.66047   0.94563   0.46448   1.000
    Zr40    Zr   0.23599   0.03004   0.14134   1.000
    Zr41    Zr   0.23599   0.53004   0.14134   1.000
    Zr42    Zr   0.73600   0.03004   0.14134   1.000
    Zr43    Zr   0.73601   0.53004   0.14134   1.000
    Zr44    Zr   0.27845   0.07834   0.31728   1.000
    Zr45    Zr   0.27846   0.57834   0.31728   1.000
    Zr46    Zr   0.77847   0.07834   0.31728   1.000
    Zr47    Zr   0.77847   0.57834   0.31728   1.000
    Zr48    Zr   0.48605   0.39905   0.14117   1.000
    Zr49    Zr   0.48605   0.89905   0.14117   1.000
    Zr50    Zr   0.98606   0.39905   0.14117   1.000
    Zr51    Zr   0.98606   0.89905   0.14117   1.000
    Zr52    Zr   0.41042   0.32230   0.46436   1.000
    Zr53    Zr   0.41042   0.82230   0.46436   1.000
    Zr54    Zr   0.91043   0.32230   0.46436   1.000
    Zr55    Zr   0.91044   0.82230   0.46436   1.000
    Zr56    Zr   0.02849   0.26296   0.31725   1.000
    Zr57    Zr   0.02849   0.76296   0.31725   1.000
    Zr58    Zr   0.52850   0.26296   0.31725   1.000
    Zr59    Zr   0.52851   0.76296   0.31725   1.000
    Zr60    Zr   0.33957   0.05437   0.53551   1.000
    Zr61    Zr   0.33957   0.55437   0.53551   1.000
    Zr62    Zr   0.83958   0.05437   0.53551   1.000
    Zr63    Zr   0.83959   0.55437   0.53551   1.000
    Zr64    Zr   0.26404   0.46996   0.85860   1.000
    Zr65    Zr   0.26404   0.96995   0.85860   1.000
    Zr66    Zr   0.76405   0.46996   0.85860   1.000
    Zr67    Zr   0.76405   0.96995   0.85860   1.000
    Zr68    Zr   0.22157   0.42165   0.68272   1.000
    Zr69    Zr   0.22157   0.92165   0.68272   1.000
    Zr70    Zr   0.72158   0.42165   0.68272   1.000
    Zr71    Zr   0.72159   0.92165   0.68272   1.000
    Zr72    Zr   0.09653   0.13306   0.86856   1.000
    Zr73    Zr   0.09653   0.63306   0.86856   1.000
    Zr74    Zr   0.59654   0.13306   0.86856   1.000
    Zr75    Zr   0.59655   0.63306   0.86856   1.000
    Zr76    Zr   0.46773   0.05265   0.92290   1.000
    Zr77    Zr   0.46773   0.55265   0.92290   1.000
    Zr78    Zr   0.96774   0.05265   0.92290   1.000
    Zr79    Zr   0.96774   0.55265   0.92290   1.000
    Zr80    Zr   0.10194   0.14458   0.48311   1.000
    Zr81    Zr   0.10195   0.64458   0.48311   1.000
    Zr82    Zr   0.60196   0.14458   0.48311   1.000
    Zr83    Zr   0.60196   0.64458   0.48311   1.000
    Zr84    Zr   0.13956   0.23364   0.52091   1.000
    Zr85    Zr   0.13956   0.73364   0.52091   1.000
    Zr86    Zr   0.63958   0.23364   0.52091   1.000
    Zr87    Zr   0.63958   0.73364   0.52091   1.000
    Zr88    Zr   0.03253   0.28926   0.66698   1.000
    Zr89    Zr   0.03253   0.78926   0.66698   1.000
    Zr90    Zr   0.53254   0.28926   0.66698   1.000
    Zr91    Zr   0.53254   0.78926   0.66698   1.000
    Zr92    Zr   0.36848   0.23436   0.68747   1.000
    Zr93    Zr   0.36848   0.73436   0.68747   1.000
    Zr94    Zr   0.86849   0.23436   0.68747   1.000
    Zr95    Zr   0.86849   0.73436   0.68747   1.000
    Zr96    Zr   0.11064   0.49428   0.47916   1.000
    Zr97    Zr   0.11064   0.99428   0.47916   1.000
    Zr98    Zr   0.61065   0.49428   0.47916   1.000
    Zr99    Zr   0.61065   0.99428   0.47916   1.000
    Zr100   Zr   0.14802   0.38629   0.51705   1.000
    Zr101   Zr   0.14802   0.88628   0.51705   1.000
    Zr102   Zr   0.64803   0.38629   0.51705   1.000
    Zr103   Zr   0.64803   0.88628   0.51705   1.000
    Zr104   Zr   0.28231   0.01383   0.07724   1.000
    Zr105   Zr   0.28232   0.51383   0.07724   1.000
    Zr106   Zr   0.78233   0.01383   0.07724   1.000
    Zr107   Zr   0.78233   0.51383   0.07724   1.000
    Zr108   Zr   0.15326   0.06687   0.13164   1.000
    Zr109   Zr   0.15326   0.56687   0.13164   1.000
    Zr110   Zr   0.65328   0.06687   0.13164   1.000
    Zr111   Zr   0.65328   0.56687   0.13164   1.000
    Zr112   Zr   0.21742   0.12269   0.33304   1.000
    Zr113   Zr   0.21743   0.62269   0.33304   1.000
    Zr114   Zr   0.71744   0.12269   0.33304   1.000
    Zr115   Zr   0.71744   0.62269   0.33304   1.000
    Zr116   Zr   0.38150   0.07806   0.31259   1.000
    Zr117   Zr   0.38150   0.57806   0.31259   1.000
    Zr118   Zr   0.88151   0.07806   0.31259   1.000
    Zr119   Zr   0.88152   0.57806   0.31259   1.000
    Zr120   Zr   0.40350   0.36693   0.13143   1.000
    Zr121   Zr   0.40350   0.86693   0.13143   1.000
    Zr122   Zr   0.90351   0.36693   0.13143   1.000
    Zr123   Zr   0.90351   0.86693   0.13143   1.000
    Zr124   Zr   0.03230   0.44734   0.07710   1.000
    Zr125   Zr   0.03230   0.94734   0.07710   1.000
    Zr126   Zr   0.53231   0.44734   0.07710   1.000
    Zr127   Zr   0.53231   0.94734   0.07710   1.000
    Zr128   Zr   0.39808   0.35541   0.51689   1.000
    Zr129   Zr   0.39808   0.85541   0.51689   1.000
    Zr130   Zr   0.89810   0.35541   0.51689   1.000
    Zr131   Zr   0.89810   0.85541   0.51689   1.000
    Zr132   Zr   0.36046   0.26636   0.47909   1.000
    Zr133   Zr   0.36046   0.76635   0.47909   1.000
    Zr134   Zr   0.86048   0.26636   0.47909   1.000
    Zr135   Zr   0.86048   0.76635   0.47909   1.000
    Zr136   Zr   0.46749   0.21073   0.33301   1.000
    Zr137   Zr   0.46750   0.71073   0.33301   1.000
    Zr138   Zr   0.96751   0.21073   0.33301   1.000
    Zr139   Zr   0.96751   0.71073   0.33301   1.000
    Zr140   Zr   0.13154   0.26564   0.31253   1.000
    Zr141   Zr   0.13155   0.76563   0.31253   1.000
    Zr142   Zr   0.63156   0.26564   0.31253   1.000
    Zr143   Zr   0.63156   0.76563   0.31253   1.000
    Zr144   Zr   0.38939   0.00572   0.52084   1.000
    Zr145   Zr   0.38939   0.50572   0.52084   1.000
    Zr146   Zr   0.88940   0.00572   0.52084   1.000
    Zr147   Zr   0.88941   0.50572   0.52084   1.000
    Zr148   Zr   0.35201   0.11371   0.48295   1.000
    Zr149   Zr   0.35201   0.61371   0.48295   1.000
    Zr150   Zr   0.85202   0.11371   0.48295   1.000
    Zr151   Zr   0.85202   0.61371   0.48295   1.000
    Zr152   Zr   0.21771   0.48616   0.92276   1.000
    Zr153   Zr   0.21771   0.98616   0.92276   1.000
    Zr154   Zr   0.71772   0.48616   0.92276   1.000
    Zr155   Zr   0.71773   0.98616   0.92276   1.000
    Zr156   Zr   0.34676   0.43312   0.86835   1.000
    Zr157   Zr   0.34677   0.93312   0.86835   1.000
    Zr158   Zr   0.84678   0.43312   0.86835   1.000
    Zr159   Zr   0.84678   0.93312   0.86835   1.000
    Zr160   Zr   0.28260   0.37731   0.66696   1.000
    Zr161   Zr   0.28260   0.87731   0.66696   1.000
    Zr162   Zr   0.78261   0.37731   0.66696   1.000
    Zr163   Zr   0.78262   0.87731   0.66696   1.000
    Zr164   Zr   0.11852   0.42194   0.68740   1.000
    Zr165   Zr   0.11853   0.92194   0.68740   1.000
    Zr166   Zr   0.61854   0.42194   0.68740   1.000
    Zr167   Zr   0.61854   0.92194   0.68740   1.000
    O168    O    0.00918   0.42320   0.10914   1.000
    O169    O    0.00918   0.92319   0.10914   1.000
    O170    O    0.50918   0.42320   0.10914   1.000
    O171    O    0.50918   0.92319   0.10914   1.000
    O172    O    0.75917   0.52194   0.10929   1.000
    O173    O    0.82870   0.48298   0.03861   1.000
    O174    O    0.75917   0.02194   0.10929   1.000
    O175    O    0.82870   0.98298   0.03861   1.000
    O176    O    0.25915   0.52194   0.10929   1.000
    O177    O    0.32869   0.48298   0.03861   1.000
    O178    O    0.25915   0.02194   0.10929   1.000
    O179    O    0.32869   0.98298   0.03861   1.000
    O180    O    0.44477   0.38299   0.13630   1.000
    O181    O    0.44477   0.88299   0.13630   1.000
    O182    O    0.94478   0.38299   0.13630   1.000
    O183    O    0.94479   0.88299   0.13630   1.000
    O184    O    0.69464   0.54846   0.13649   1.000
    O185    O    0.19462   0.04846   0.13649   1.000
    O186    O    0.19463   0.54846   0.13649   1.000
    O187    O    0.69464   0.04846   0.13649   1.000
    O188    O    0.08002   0.26430   0.31489   1.000
    O189    O    0.20119   0.23778   0.35440   1.000
    O190    O    0.08002   0.76430   0.31489   1.000
    O191    O    0.20119   0.73778   0.35440   1.000
    O192    O    0.58003   0.26430   0.31489   1.000
    O193    O    0.70120   0.23778   0.35440   1.000
    O194    O    0.58003   0.76430   0.31489   1.000
    O195    O    0.70121   0.73778   0.35440   1.000
    O196    O    0.82999   0.57820   0.31494   1.000
    O197    O    0.82999   0.07820   0.31494   1.000
    O198    O    0.32998   0.57820   0.31494   1.000
    O199    O    0.32998   0.07820   0.31494   1.000
    O200    O    0.99800   0.23685   0.32513   1.000
    O201    O    0.49800   0.73685   0.32513   1.000
    O202    O    0.49800   0.23685   0.32513   1.000
    O203    O    0.99800   0.73685   0.32513   1.000
    O204    O    0.74795   0.60052   0.32516   1.000
    O205    O    0.74795   0.10052   0.32516   1.000
    O206    O    0.24794   0.60052   0.32516   1.000
    O207    O    0.24794   0.10052   0.32516   1.000
    O208    O    0.06139   0.61823   0.43967   1.000
    O209    O    0.56140   0.11823   0.43967   1.000
    O210    O    0.56141   0.61823   0.43967   1.000
    O211    O    0.06139   0.11823   0.43967   1.000
    O212    O    0.31142   0.66182   0.43961   1.000
    O213    O    0.81144   0.66182   0.43961   1.000
    O214    O    0.81143   0.16182   0.43961   1.000
    O215    O    0.31142   0.16182   0.43961   1.000
    O216    O    0.88545   0.29433   0.47173   1.000
    O217    O    0.90426   0.33886   0.49063   1.000
    O218    O    0.38544   0.79433   0.47173   1.000
    O219    O    0.40425   0.83885   0.49063   1.000
    O220    O    0.38544   0.29433   0.47173   1.000
    O221    O    0.40425   0.33886   0.49063   1.000
    O222    O    0.88546   0.79433   0.47173   1.000
    O223    O    0.90427   0.83885   0.49063   1.000
    O224    O    0.13554   0.46995   0.47182   1.000
    O225    O    0.15423   0.41596   0.49077   1.000
    O226    O    0.63556   0.46995   0.47182   1.000
    O227    O    0.65425   0.41596   0.49077   1.000
    O228    O    0.13555   0.96995   0.47182   1.000
    O229    O    0.15424   0.91596   0.49077   1.000
    O230    O    0.63556   0.96995   0.47182   1.000
    O231    O    0.65425   0.91596   0.49077   1.000
    O232    O    0.34579   0.58404   0.50923   1.000
    O233    O    0.84580   0.08404   0.50923   1.000
    O234    O    0.34579   0.08404   0.50923   1.000
    O235    O    0.84581   0.58404   0.50923   1.000
    O236    O    0.09577   0.16114   0.50938   1.000
    O237    O    0.09578   0.66114   0.50938   1.000
    O238    O    0.59579   0.16114   0.50938   1.000
    O239    O    0.59579   0.66114   0.50938   1.000
    O240    O    0.93865   0.88177   0.56033   1.000
    O241    O    0.93865   0.38177   0.56033   1.000
    O242    O    0.43864   0.88177   0.56033   1.000
    O243    O    0.43863   0.38177   0.56033   1.000
    O244    O    0.18860   0.33817   0.56039   1.000
    O245    O    0.68862   0.83817   0.56039   1.000
    O246    O    0.68862   0.33817   0.56039   1.000
    O247    O    0.18861   0.83817   0.56039   1.000
    O248    O    0.86449   0.03004   0.52818   1.000
    O249    O    0.36448   0.53004   0.52818   1.000
    O250    O    0.86450   0.53004   0.52818   1.000
    O251    O    0.36448   0.03004   0.52818   1.000
    O252    O    0.11458   0.20567   0.52828   1.000
    O253    O    0.11459   0.70567   0.52828   1.000
    O254    O    0.61460   0.20567   0.52828   1.000
    O255    O    0.61460   0.70567   0.52828   1.000
    O256    O    0.29884   0.76221   0.64560   1.000
    O257    O    0.79885   0.26221   0.64560   1.000
    O258    O    0.79885   0.76221   0.64560   1.000
    O259    O    0.29883   0.26221   0.64560   1.000
    O260    O    0.54886   0.41503   0.64558   1.000
    O261    O    0.54887   0.91503   0.64558   1.000
    O262    O    0.04886   0.41503   0.64558   1.000
    O263    O    0.04887   0.91503   0.64558   1.000
    O264    O    0.75210   0.89948   0.67484   1.000
    O265    O    0.75210   0.39948   0.67484   1.000
    O266    O    0.25209   0.89948   0.67484   1.000
    O267    O    0.25209   0.39948   0.67484   1.000
    O268    O    0.00204   0.76315   0.67484   1.000
    O269    O    0.50204   0.26315   0.67484   1.000
    O270    O    0.50204   0.76315   0.67484   1.000
    O271    O    0.00204   0.26315   0.67486   1.000
    O272    O    0.92002   0.73569   0.68509   1.000
    O273    O    0.42001   0.23569   0.68509   1.000
    O274    O    0.42001   0.73569   0.68509   1.000
    O275    O    0.67006   0.92179   0.68506   1.000
    O276    O    0.67006   0.42179   0.68506   1.000
    O277    O    0.17005   0.92179   0.68506   1.000
    O278    O    0.17005   0.42179   0.68506   1.000
    O279    O    0.92002   0.23569   0.68511   1.000
    O280    O    0.30540   0.45154   0.86348   1.000
    O281    O    0.24087   0.47806   0.89068   1.000
    O282    O    0.30540   0.95154   0.86348   1.000
    O283    O    0.24088   0.97806   0.89068   1.000
    O284    O    0.80541   0.45154   0.86348   1.000
    O285    O    0.74089   0.47806   0.89068   1.000
    O286    O    0.80542   0.95154   0.86348   1.000
    O287    O    0.74089   0.97806   0.89068   1.000
    O288    O    0.05526   0.61700   0.86369   1.000
    O289    O    0.99086   0.57680   0.89086   1.000
    O290    O    0.55527   0.11700   0.86369   1.000
    O291    O    0.49086   0.07680   0.89086   1.000
    O292    O    0.55527   0.61700   0.86369   1.000
    O293    O    0.49086   0.57680   0.89086   1.000
    O294    O    0.05525   0.11700   0.86369   1.000
    O295    O    0.99086   0.07680   0.89086   1.000
    O296    O    0.42140   0.00239   0.96144   1.000
    O297    O    0.42140   0.50239   0.96144   1.000
    O298    O    0.92141   0.00239   0.96144   1.000
    O299    O    0.92141   0.50239   0.96144   1.000
    O300    O    0.18639   0.17726   0.43969   1.000
    O301    O    0.18639   0.67726   0.43969   1.000
    O302    O    0.68640   0.17726   0.43969   1.000
    O303    O    0.68640   0.67726   0.43969   1.000
    O304    O    0.18438   0.26185   0.56232   1.000
    O305    O    0.20520   0.22179   0.45859   1.000
    O306    O    0.18438   0.76185   0.56232   1.000
    O307    O    0.20520   0.72179   0.45859   1.000
    O308    O    0.68439   0.26185   0.56232   1.000
    O309    O    0.70521   0.22179   0.45859   1.000
    O310    O    0.68439   0.76185   0.56232   1.000
    O311    O    0.70521   0.72179   0.45859   1.000
    O312    O    0.13086   0.28966   0.63535   1.000
    O313    O    0.00586   0.34870   0.63537   1.000
    O314    O    0.13086   0.78966   0.63535   1.000
    O315    O    0.00587   0.84869   0.63537   1.000
    O316    O    0.63087   0.28966   0.63535   1.000
    O317    O    0.50586   0.34870   0.63537   1.000
    O318    O    0.63088   0.78966   0.63535   1.000
    O319    O    0.50587   0.84869   0.63537   1.000
    O320    O    0.06574   0.54307   0.43770   1.000
    O321    O    0.11780   0.52107   0.38958   1.000
    O322    O    0.04492   0.45120   0.54146   1.000
    O323    O    0.06574   0.04307   0.43770   1.000
    O324    O    0.11780   0.02107   0.38958   1.000
    O325    O    0.04492   0.95120   0.54146   1.000
    O326    O    0.56575   0.54307   0.43770   1.000
    O327    O    0.61781   0.52107   0.38958   1.000
    O328    O    0.54492   0.45120   0.54146   1.000
    O329    O    0.56575   0.04307   0.43770   1.000
    O330    O    0.61782   0.02107   0.38958   1.000
    O331    O    0.54492   0.95120   0.54146   1.000
    O332    O    0.06361   0.39721   0.56041   1.000
    O333    O    0.06361   0.89720   0.56041   1.000
    O334    O    0.56361   0.39721   0.56041   1.000
    O335    O    0.56361   0.89720   0.56041   1.000
    O336    O    0.13911   0.05737   0.21582   1.000
    O337    O    0.13911   0.55737   0.21582   1.000
    O338    O    0.63913   0.05737   0.21582   1.000
    O339    O    0.63913   0.55737   0.21582   1.000
    O340    O    0.11913   0.10728   0.36464   1.000
    O341    O    0.17119   0.08528   0.31652   1.000
    O342    O    0.24413   0.16631   0.36466   1.000
    O343    O    0.11913   0.60728   0.36464   1.000
    O344    O    0.17120   0.58528   0.31652   1.000
    O345    O    0.24413   0.66631   0.36466   1.000
    O346    O    0.61914   0.10728   0.36464   1.000
    O347    O    0.67121   0.08528   0.31652   1.000
    O348    O    0.74414   0.16631   0.36466   1.000
    O349    O    0.61915   0.60728   0.36464   1.000
    O350    O    0.67121   0.58528   0.31652   1.000
    O351    O    0.74414   0.66631   0.36466   1.000
    O352    O    0.45117   0.08496   0.35441   1.000
    O353    O    0.45118   0.58496   0.35441   1.000
    O354    O    0.95117   0.08496   0.35441   1.000
    O355    O    0.95118   0.58496   0.35441   1.000
    O356    O    0.38928   0.40953   0.06570   1.000
    O357    O    0.38928   0.90953   0.06570   1.000
    O358    O    0.88929   0.40953   0.06570   1.000
    O359    O    0.88930   0.90953   0.06570   1.000
    O360    O    0.95369   0.44974   0.03854   1.000
    O361    O    0.95369   0.94973   0.03854   1.000
    O362    O    0.45369   0.44974   0.03854   1.000
    O363    O    0.45369   0.94973   0.03854   1.000
    O364    O    0.31364   0.32274   0.56031   1.000
    O365    O    0.31364   0.82274   0.56031   1.000
    O366    O    0.81365   0.32274   0.56031   1.000
    O367    O    0.81365   0.82274   0.56031   1.000
    O368    O    0.29483   0.27821   0.54141   1.000
    O369    O    0.31565   0.23814   0.43768   1.000
    O370    O    0.29483   0.77821   0.54141   1.000
    O371    O    0.31565   0.73814   0.43768   1.000
    O372    O    0.79484   0.27821   0.54141   1.000
    O373    O    0.81566   0.23814   0.43768   1.000
    O374    O    0.79484   0.77821   0.54141   1.000
    O375    O    0.81566   0.73814   0.43768   1.000
    O376    O    0.49417   0.15130   0.36462   1.000
    O377    O    0.36916   0.21033   0.36464   1.000
    O378    O    0.49418   0.65130   0.36462   1.000
    O379    O    0.36917   0.71033   0.36464   1.000
    O380    O    0.99417   0.15130   0.36462   1.000
    O381    O    0.86918   0.21033   0.36464   1.000
    O382    O    0.99418   0.65130   0.36462   1.000
    O383    O    0.86918   0.71033   0.36464   1.000
    O384    O    0.45512   0.04879   0.45854   1.000
    O385    O    0.43429   0.95692   0.56230   1.000
    O386    O    0.45512   0.54879   0.45854   1.000
    O387    O    0.43429   0.45692   0.56230   1.000
    O388    O    0.95512   0.04879   0.45854   1.000
    O389    O    0.93430   0.95692   0.56230   1.000
    O390    O    0.95512   0.54879   0.45854   1.000
    O391    O    0.93430   0.45692   0.56230   1.000
    O392    O    0.43643   0.10279   0.43959   1.000
    O393    O    0.43643   0.60279   0.43959   1.000
    O394    O    0.93643   0.10279   0.43959   1.000
    O395    O    0.93643   0.60279   0.43959   1.000
    O396    O    0.29639   0.46914   0.96137   1.000
    O397    O    0.29639   0.96914   0.96137   1.000
    O398    O    0.79640   0.46914   0.96137   1.000
    O399    O    0.79640   0.96914   0.96137   1.000
    O400    O    0.36091   0.44263   0.93416   1.000
    O401    O    0.36092   0.94262   0.93416   1.000
    O402    O    0.86093   0.44263   0.93416   1.000
    O403    O    0.86093   0.94262   0.93416   1.000
    O404    O    0.25590   0.33368   0.63534   1.000
    O405    O    0.38089   0.39272   0.63536   1.000
    O406    O    0.25590   0.83368   0.63534   1.000
    O407    O    0.38090   0.89271   0.63536   1.000
    O408    O    0.75591   0.33368   0.63534   1.000
    O409    O    0.88091   0.39272   0.63536   1.000
    O410    O    0.75591   0.83368   0.63534   1.000
    O411    O    0.88091   0.89271   0.63536   1.000
    N412    N    0.22182   0.51592   0.30538   1.000
    O413    O    0.23598   0.53153   0.30836   1.000
    O414    O    0.08338   0.54812   0.30910   1.000
    O415    O    0.10941   0.53712   0.28504   1.000
    O416    O    0.22997   0.44486   0.40379   1.000
    O417    O    0.28338   0.50192   0.20554   1.000
    N418    N    0.47183   0.83132   0.30528   1.000
    O419    O    0.48600   0.81423   0.30827   1.000
    O420    O    0.53345   0.89512   0.20536   1.000
    O421    O    0.47991   0.85336   0.40362   1.000
    O422    O    0.33340   0.79719   0.30902   1.000
    N423    N    0.97184   0.33132   0.30528   1.000
    O424    O    0.98600   0.31423   0.30827   1.000
    O425    O    0.97992   0.35336   0.40362   1.000
    O426    O    0.03344   0.39512   0.20536   1.000
    O427    O    0.83341   0.29719   0.30902   1.000
    N428    N    0.02819   0.16868   0.69472   1.000
    O429    O    0.01403   0.18577   0.69173   1.000
    O430    O    0.96660   0.10488   0.79463   1.000
    O431    O    0.16662   0.20280   0.69098   1.000
    O432    O    0.02012   0.14664   0.59638   1.000
    N433    N    0.52821   0.16868   0.69472   1.000
    O434    O    0.51404   0.18577   0.69172   1.000
    O435    O    0.66664   0.20280   0.69098   1.000
    O436    O    0.52013   0.14664   0.59638   1.000
    O437    O    0.46659   0.10488   0.79463   1.000
    N438    N    0.22182   0.01592   0.30538   1.000
    O439    O    0.23597   0.03153   0.30836   1.000
    O440    O    0.22998   0.94486   0.40379   1.000
    O441    O    0.28338   0.00150   0.20554   1.000
    O442    O    0.08337   0.04812   0.30909   1.000
    O443    O    0.10941   0.03712   0.28503   1.000
    N444    N    0.47183   0.33132   0.30528   1.000
    O445    O    0.48600   0.31423   0.30827   1.000
    O446    O    0.33340   0.29719   0.30902   1.000
    O447    O    0.47991   0.35336   0.40362   1.000
    O448    O    0.53345   0.39512   0.20536   1.000
    N449    N    0.77822   0.48407   0.69462   1.000
    O450    O    0.76406   0.46847   0.69165   1.000
    O451    O    0.91666   0.45188   0.69090   1.000
    O452    O    0.71666   0.49808   0.79438   1.000
    O453    O    0.77006   0.55513   0.59620   1.000
    N454    N    0.72183   0.01592   0.30538   1.000
    O455    O    0.73599   0.03153   0.30836   1.000
    O456    O    0.78340   0.00150   0.20554   1.000
    O457    O    0.72999   0.94486   0.40379   1.000
    O458    O    0.58339   0.04812   0.30909   1.000
    O459    O    0.60942   0.03712   0.28503   1.000
    N460    N    0.27821   0.48407   0.69462   1.000
    O461    O    0.26405   0.46847   0.69165   1.000
    O462    O    0.27005   0.55513   0.59620   1.000
    O463    O    0.21664   0.49808   0.79438   1.000
    O464    O    0.41665   0.45188   0.69090   1.000
    N465    N    0.72183   0.51592   0.30538   1.000
    O466    O    0.73599   0.53153   0.30836   1.000
    O467    O    0.72999   0.44486   0.40379   1.000
    O468    O    0.60942   0.53712   0.28504   1.000
    O469    O    0.58339   0.54812   0.30910   1.000
    O470    O    0.78340   0.50192   0.20554   1.000
    N471    N    0.77822   0.98407   0.69462   1.000
    O472    O    0.76407   0.96847   0.69165   1.000
    O473    O    0.71666   0.99808   0.79445   1.000
    O474    O    0.91667   0.95187   0.69090   1.000
    O475    O    0.77006   0.05513   0.59620   1.000
    N476    N    0.97185   0.83132   0.30528   1.000
    O477    O    0.98601   0.81423   0.30827   1.000
    O478    O    0.83342   0.79719   0.30902   1.000
    O479    O    0.03344   0.89512   0.20536   1.000
    O480    O    0.97992   0.85336   0.40362   1.000
    N481    N    0.52821   0.66868   0.69472   1.000
    O482    O    0.51404   0.68576   0.69172   1.000
    O483    O    0.66664   0.70280   0.69098   1.000
    O484    O    0.46659   0.60488   0.79463   1.000
    O485    O    0.52013   0.64664   0.59638   1.000
    N486    N    0.02820   0.66868   0.69472   1.000
    O487    O    0.01404   0.68576   0.69172   1.000
    O488    O    0.02012   0.64664   0.59638   1.000
    O489    O    0.16663   0.70280   0.69098   1.000
    O490    O    0.96660   0.60488   0.79463   1.000
    N491    N    0.27821   0.98407   0.69462   1.000
    O492    O    0.26405   0.96847   0.69165   1.000
    O493    O    0.27005   0.05513   0.59620   1.000
    O494    O    0.21664   0.99808   0.79445   1.000
    O495    O    0.41665   0.95187   0.69090   1.000
loop_
    _geom_bond_atom_site_label_1
    _geom_bond_atom_site_label_2
    _geom_bond_distance
    _geom_bond_site_symmetry_2
    _ccdc_geom_bond_type
    Zr124  O168      0.64818      .   S
    Zr50   O168      0.64818  1_655   S
    Zr125  O169      0.64818      .   S
    Zr51   O169      0.64818  1_655   S
    Zr126  O170      0.64824      .   S
    Zr48   O170      0.64824      .   S
    Zr127  O171      0.64824      .   S
    Zr49   O171      0.64824      .   S
    Zr107  O172      0.64814      .   S
    Zr43   O172      0.64814      .   S
    Zr107  O173      1.16057      .   S
    Zr2    O173      1.16057  1_556   S
    Zr106  O174      0.64814      .   S
    Zr42   O174      0.64814      .   S
    Zr106  O175      1.16060  1_545   S
    Zr3    O175      1.16060  1_556   S
    Zr105  O176      0.64814      .   S
    Zr41   O176      0.64814      .   S
    Zr105  O177      1.16057      .   S
    Zr0    O177      1.16057  1_556   S
    Zr104  O178      0.64814      .   S
    Zr40   O178      0.64814      .   S
    Zr104  O179      1.16060  1_545   S
    Zr1    O179      1.16060  1_556   S
    Zr120  O180      0.63663      .   S
    Zr48   O180      0.63663      .   S
    Zr121  O181      0.63664      .   S
    Zr49   O181      0.63664      .   S
    Zr122  O182      0.63663      .   S
    Zr50   O182      0.63663      .   S
    Zr123  O183      0.63663      .   S
    Zr51   O183      0.63663      .   S
    Zr111  O184      0.63667      .   S
    Zr43   O184      0.63667      .   S
    Zr108  O185      0.63667      .   S
    Zr40   O185      0.63667      .   S
    Zr109  O186      0.63667      .   S
    Zr41   O186      0.63667      .   S
    Zr110  O187      0.63667      .   S
    Zr42   O187      0.63667      .   S
    Zr140  O188      0.63183      .   S
    Zr56   O188      0.63183      .   S
    Zr140  O189      1.19767      .   S
    Zr20   O189      1.19767      .   S
    Zr141  O190      0.63183      .   S
    Zr57   O190      0.63183      .   S
    Zr141  O191      1.19767      .   S
    Zr21   O191      1.19767      .   S
    Zr142  O192      0.63183      .   S
    Zr58   O192      0.63183      .   S
    Zr142  O193      1.19767      .   S
    Zr22   O193      1.19767      .   S
    Zr143  O194      0.63183      .   S
    Zr59   O194      0.63183      .   S
    Zr143  O195      1.19767      .   S
    Zr23   O195      1.19767      .   S
    Zr119  O196      0.63177      .   S
    Zr47   O196      0.63177      .   S
    Zr118  O197      0.63177      .   S
    Zr46   O197      0.63177      .   S
    Zr117  O198      0.63177      .   S
    Zr45   O198      0.63177      .   S
    Zr116  O199      0.63177      .   S
    Zr44   O199      0.63177      .   S
    Zr56   O200      0.63584  1_455   S
    Zr138  O200      0.63584      .   S
    Zr59   O201      0.63594      .   S
    Zr137  O201      0.63594      .   S
    Zr58   O202      0.63594      .   S
    Zr136  O202      0.63594      .   S
    Zr57   O203      0.63584  1_455   S
    Zr139  O203      0.63584      .   S
    Zr47   O204      0.63594      .   S
    Zr115  O204      0.63594      .   S
    Zr46   O205      0.63594      .   S
    Zr114  O205      0.63594      .   S
    Zr45   O206      0.63594      .   S
    Zr113  O206      0.63594      .   S
    Zr44   O207      0.63594      .   S
    Zr112  O207      0.63594      .   S
    Zr5    O208      1.18743      .   S
    Zr81   O208      1.18743      .   S
    Zr6    O209      1.18743      .   S
    Zr82   O209      1.18743      .   S
    Zr7    O210      1.18743      .   S
    Zr83   O210      1.18743      .   S
    Zr4    O211      1.18743      .   S
    Zr80   O211      1.18743      .   S
    Zr21   O212      1.18784      .   S
    Zr149  O212      1.18784      .   S
    Zr23   O213      1.18784      .   S
    Zr151  O213      1.18784      .   S
    Zr22   O214      1.18784      .   S
    Zr150  O214      1.18784      .   S
    Zr20   O215      1.18784      .   S
    Zr148  O215      1.18784      .   S
    Zr54   O216      0.63450      .   S
    Zr134  O216      0.63450      .   S
    Zr54   O217      0.63829      .   S
    Zr130  O217      0.63829      .   S
    Zr53   O218      0.63450      .   S
    Zr133  O218      0.63450      .   S
    Zr53   O219      0.63829      .   S
    Zr129  O219      0.63829      .   S
    Zr52   O220      0.63450      .   S
    Zr132  O220      0.63450      .   S
    Zr52   O221      0.63829      .   S
    Zr128  O221      0.63829      .   S
    Zr55   O222      0.63450      .   S
    Zr135  O222      0.63450      .   S
    Zr55   O223      0.63829      .   S
    Zr131  O223      0.63829      .   S
    Zr36   O224      0.63455      .   S
    Zr96   O224      0.63455      .   S
    Zr36   O225      0.63833      .   S
    Zr100  O225      0.63833      .   S
    Zr38   O226      0.63455      .   S
    Zr98   O226      0.63455      .   S
    Zr38   O227      0.63833      .   S
    Zr102  O227      0.63833      .   S
    Zr37   O228      0.63455      .   S
    Zr97   O228      0.63455      .   S
    Zr37   O229      0.63833      .   S
    Zr101  O229      0.63833      .   S
    Zr39   O230      0.63455      .   S
    Zr99   O230      0.63455      .   S
    Zr39   O231      0.63833      .   S
    Zr103  O231      0.63833      .   S
    Zr149  O232      0.63830      .   S
    Zr61   O232      0.63830      .   S
    Zr150  O233      0.63830      .   S
    Zr62   O233      0.63830      .   S
    Zr148  O234      0.63830      .   S
    Zr60   O234      0.63830      .   S
    Zr151  O235      0.63830      .   S
    Zr63   O235      0.63830      .   S
    Zr80   O236      0.63829      .   S
    Zr28   O236      0.63829      .   S
    Zr81   O237      0.63829      .   S
    Zr29   O237      0.63829      .   S
    Zr82   O238      0.63829      .   S
    Zr30   O238      0.63829      .   S
    Zr83   O239      0.63829      .   S
    Zr31   O239      0.63829      .   S
    Zr131  O240      1.18736      .   S
    Zr19   O240      1.18736      .   S
    Zr130  O241      1.18736      .   S
    Zr18   O241      1.18736      .   S
    Zr129  O242      1.18736      .   S
    Zr17   O242      1.18736      .   S
    Zr128  O243      1.18736      .   S
    Zr16   O243      1.18736      .   S
    Zr100  O244      1.18781      .   S
    Zr8    O244      1.18781      .   S
    Zr103  O245      1.18781      .   S
    Zr11   O245      1.18781      .   S
    Zr102  O246      1.18781      .   S
    Zr10   O246      1.18781      .   S
    Zr101  O247      1.18781      .   S
    Zr9    O247      1.18781      .   S
    Zr146  O248      0.63452      .   S
    Zr62   O248      0.63452      .   S
    Zr145  O249      0.63452      .   S
    Zr61   O249      0.63452      .   S
    Zr147  O250      0.63452      .   S
    Zr63   O250      0.63452      .   S
    Zr144  O251      0.63452      .   S
    Zr60   O251      0.63452      .   S
    Zr84   O252      0.63449      .   S
    Zr28   O252      0.63449      .   S
    Zr85   O253      0.63450      .   S
    Zr29   O253      0.63450      .   S
    Zr86   O254      0.63450      .   S
    Zr30   O254      0.63450      .   S
    Zr87   O255      0.63450      .   S
    Zr31   O255      0.63450      .   S
    Zr9    O256      1.19771      .   S
    Zr93   O256      1.19771      .   S
    Zr10   O257      1.19772      .   S
    Zr94   O257      1.19772      .   S
    Zr11   O258      1.19771      .   S
    Zr95   O258      1.19771      .   S
    Zr8    O259      1.19772      .   S
    Zr92   O259      1.19772      .   S
    Zr16   O260      1.19716      .   S
    Zr166  O260      1.19716      .   S
    Zr17   O261      1.19717      .   S
    Zr167  O261      1.19717      .   S
    Zr18   O262      1.19703  1_655   S
    Zr164  O262      1.19703      .   S
    Zr19   O263      1.19703  1_655   S
    Zr165  O263      1.19703      .   S
    Zr163  O264      0.63594      .   S
    Zr71   O264      0.63594      .   S
    Zr162  O265      0.63594      .   S
    Zr70   O265      0.63594      .   S
    Zr161  O266      0.63594      .   S
    Zr69   O266      0.63594      .   S
    Zr160  O267      0.63594      .   S
    Zr68   O267      0.63594      .   S
    Zr89   O268      0.63590      .   S
    Zr35   O268      0.63590  1_655   S
    Zr90   O269      0.63599      .   S
    Zr32   O269      0.63599      .   S
    Zr91   O270      0.63599      .   S
    Zr33   O270      0.63599      .   S
    Zr88   O271      0.63585      .   S
    Zr34   O271      0.63585  1_655   S
    Zr35   O272      0.63180      .   S
    Zr95   O272      0.63180      .   S
    Zr32   O273      0.63180      .   S
    Zr92   O273      0.63180      .   S
    Zr33   O274      0.63180      .   S
    Zr93   O274      0.63180      .   S
    Zr71   O275      0.63176      .   S
    Zr167  O275      0.63176      .   S
    Zr70   O276      0.63177      .   S
    Zr166  O276      0.63177      .   S
    Zr69   O277      0.63177      .   S
    Zr165  O277      0.63177      .   S
    Zr68   O278      0.63177      .   S
    Zr164  O278      0.63177      .   S
    Zr34   O279      0.63182      .   S
    Zr94   O279      0.63182      .   S
    Zr64   O280      0.63668      .   S
    Zr156  O280      0.63668      .   S
    Zr64   O281      0.64857      .   S
    Zr152  O281      0.64857      .   S
    Zr65   O282      0.63668      .   S
    Zr157  O282      0.63668      .   S
    Zr65   O283      0.64857      .   S
    Zr153  O283      0.64857      .   S
    Zr66   O284      0.63668      .   S
    Zr158  O284      0.63668      .   S
    Zr66   O285      0.64857      .   S
    Zr154  O285      0.64857      .   S
    Zr67   O286      0.63668      .   S
    Zr159  O286      0.63668      .   S
    Zr67   O287      0.64857      .   S
    Zr155  O287      0.64857      .   S
    Zr25   O288      0.63664      .   S
    Zr73   O288      0.63664      .   S
    Zr25   O289      0.64822  1_455   S
    Zr79   O289      0.64822      .   S
    Zr26   O290      0.63664      .   S
    Zr74   O290      0.63664      .   S
    Zr26   O291      0.64828      .   S
    Zr76   O291      0.64828      .   S
    Zr27   O292      0.63664      .   S
    Zr75   O292      0.63664      .   S
    Zr27   O293      0.64828      .   S
    Zr77   O293      0.64828      .   S
    Zr24   O294      0.63663      .   S
    Zr72   O294      0.63663      .   S
    Zr24   O295      0.64822  1_455   S
    Zr78   O295      0.64822      .   S
    Zr76   O296      1.16165      .   S
    Zr1    O296      1.16165  1_565   S
    Zr77   O297      1.16165      .   S
    Zr0    O297      1.16165      .   S
    Zr78   O298      1.16165      .   S
    Zr3    O298      1.16165  1_565   S
    Zr79   O299      1.16165      .   S
    Zr2    O299      1.16165      .   S
    Zr80   O300      1.26613      .   S
    Zr20   O300      1.26613      .   S
    Zr81   O301      1.26613      .   S
    Zr21   O301      1.26613      .   S
    Zr82   O302      1.26613      .   S
    Zr22   O302      1.26613      .   S
    Zr83   O303      1.26612      .   S
    Zr23   O303      1.26612      .   S
    Zr84   O304      1.21301      .   S
    Zr8    O304      1.21301      .   S
    Zr84   O305      1.33291      .   S
    Zr20   O305      1.33291      .   S
    Zr85   O306      1.21301      .   S
    Zr9    O306      1.21301      .   S
    Zr85   O307      1.33291      .   S
    Zr21   O307      1.33291      .   S
    Zr86   O308      1.21301      .   S
    Zr10   O308      1.21301      .   S
    Zr86   O309      1.33291      .   S
    Zr22   O309      1.33291      .   S
    Zr87   O310      1.21301      .   S
    Zr11   O310      1.21301      .   S
    Zr87   O311      1.33291      .   S
    Zr23   O311      1.33291      .   S
    Zr88   O312      1.26721      .   S
    Zr8    O312      1.26721      .   S
    Zr88   O313      1.25305      .   S
    Zr18   O313      1.25305  1_655   S
    Zr89   O314      1.26720      .   S
    Zr9    O314      1.26720      .   S
    Zr89   O315      1.25306      .   S
    Zr19   O315      1.25306  1_655   S
    Zr90   O316      1.26720      .   S
    Zr10   O316      1.26720      .   S
    Zr90   O317      1.25311      .   S
    Zr16   O317      1.25311      .   S
    Zr91   O318      1.26720      .   S
    Zr11   O318      1.26720      .   S
    Zr91   O319      1.25311      .   S
    Zr17   O319      1.25311      .   S
    Zr96   O320      1.21259      .   S
    Zr5    O320      1.21259      .   S
    Zr96   O321      1.41048      .   S
    Zr13   O321      1.41048      .   S
    Zr96   O322      1.33405      .   S
    Zr18   O322      1.33405  1_655   S
    Zr97   O323      1.21263  1_565   S
    Zr4    O323      1.21263      .   S
    Zr97   O324      1.41049  1_565   S
    Zr12   O324      1.41049      .   S
    Zr97   O325      1.33405      .   S
    Zr19   O325      1.33405  1_655   S
    Zr98   O326      1.21259      .   S
    Zr7    O326      1.21259      .   S
    Zr98   O327      1.41048      .   S
    Zr15   O327      1.41048      .   S
    Zr98   O328      1.33414      .   S
    Zr16   O328      1.33414      .   S
    Zr99   O329      1.21263  1_565   S
    Zr6    O329      1.21263      .   S
    Zr99   O330      1.41049  1_565   S
    Zr14   O330      1.41049      .   S
    Zr99   O331      1.33415      .   S
    Zr17   O331      1.33415      .   S
    Zr100  O332      1.26476      .   S
    Zr18   O332      1.26476  1_655   S
    Zr101  O333      1.26476      .   S
    Zr19   O333      1.26476  1_655   S
    Zr102  O334      1.26489      .   S
    Zr16   O334      1.26489      .   S
    Zr103  O335      1.26489      .   S
    Zr17   O335      1.26489      .   S
    Zr108  O336      1.34323      .   S
    Zr12   O336      1.34323      .   S
    Zr109  O337      1.34322      .   S
    Zr13   O337      1.34322      .   S
    Zr110  O338      1.34323      .   S
    Zr14   O338      1.34323      .   S
    Zr111  O339      1.34322      .   S
    Zr15   O339      1.34322      .   S
    Zr112  O340      1.26663      .   S
    Zr4    O340      1.26663      .   S
    Zr112  O341      1.09072      .   S
    Zr12   O341      1.09072      .   S
    Zr112  O342      1.25288      .   S
    Zr20   O342      1.25288      .   S
    Zr113  O343      1.26663      .   S
    Zr5    O343      1.26663      .   S
    Zr113  O344      1.09073      .   S
    Zr13   O344      1.09073      .   S
    Zr113  O345      1.25288      .   S
    Zr21   O345      1.25288      .   S
    Zr114  O346      1.26663      .   S
    Zr6    O346      1.26663      .   S
    Zr114  O347      1.09072      .   S
    Zr14   O347      1.09072      .   S
    Zr114  O348      1.25288      .   S
    Zr22   O348      1.25288      .   S
    Zr115  O349      1.26663      .   S
    Zr7    O349      1.26663      .   S
    Zr115  O350      1.09073      .   S
    Zr15   O350      1.09073      .   S
    Zr115  O351      1.25288      .   S
    Zr23   O351      1.25288      .   S
    Zr116  O352      1.19717      .   S
    Zr6    O352      1.19717      .   S
    Zr117  O353      1.19717      .   S
    Zr7    O353      1.19717      .   S
    Zr118  O354      1.19703      .   S
    Zr4    O354      1.19703  1_455   S
    Zr119  O355      1.19703      .   S
    Zr5    O355      1.19703  1_455   S
    Zr120  O356      1.20515      .   S
    Zr0    O356      1.20515  1_556   S
    Zr121  O357      1.20516      .   S
    Zr1    O357      1.20516  1_556   S
    Zr122  O358      1.20515      .   S
    Zr2    O358      1.20515  1_556   S
    Zr123  O359      1.20515      .   S
    Zr3    O359      1.20515  1_556   S
    Zr124  O360      1.20998  1_455   S
    Zr2    O360      1.20998  1_556   S
    Zr125  O361      1.20998  1_455   S
    Zr3    O361      1.20998  1_556   S
    Zr126  O362      1.21013      .   S
    Zr0    O362      1.21013  1_556   S
    Zr127  O363      1.21013      .   S
    Zr1    O363      1.21013  1_556   S
    Zr128  O364      1.26611      .   S
    Zr8    O364      1.26611      .   S
    Zr129  O365      1.26611      .   S
    Zr9    O365      1.26611      .   S
    Zr130  O366      1.26611      .   S
    Zr10   O366      1.26611      .   S
    Zr131  O367      1.26611      .   S
    Zr11   O367      1.26611      .   S
    Zr132  O368      1.33284      .   S
    Zr8    O368      1.33284      .   S
    Zr132  O369      1.21308      .   S
    Zr20   O369      1.21308      .   S
    Zr133  O370      1.33284      .   S
    Zr9    O370      1.33284      .   S
    Zr133  O371      1.21308      .   S
    Zr21   O371      1.21308      .   S
    Zr134  O372      1.33284      .   S
    Zr10   O372      1.33284      .   S
    Zr134  O373      1.21308      .   S
    Zr22   O373      1.21308      .   S
    Zr135  O374      1.33284      .   S
    Zr11   O374      1.33284      .   S
    Zr135  O375      1.21308      .   S
    Zr23   O375      1.21308      .   S
    Zr136  O376      1.25311      .   S
    Zr6    O376      1.25311      .   S
    Zr136  O377      1.26720      .   S
    Zr20   O377      1.26720      .   S
    Zr137  O378      1.25311      .   S
    Zr7    O378      1.25311      .   S
    Zr137  O379      1.26721      .   S
    Zr21   O379      1.26721      .   S
    Zr138  O380      1.25306      .   S
    Zr4    O380      1.25306  1_455   S
    Zr138  O381      1.26720      .   S
    Zr22   O381      1.26720      .   S
    Zr139  O382      1.25306      .   S
    Zr5    O382      1.25306  1_455   S
    Zr139  O383      1.26721      .   S
    Zr23   O383      1.26721      .   S
    Zr144  O384      1.33419      .   S
    Zr6    O384      1.33419      .   S
    Zr144  O385      1.21260  1_545   S
    Zr17   O385      1.21260      .   S
    Zr145  O386      1.33419      .   S
    Zr7    O386      1.33419      .   S
    Zr145  O387      1.21257      .   S
    Zr16   O387      1.21257      .   S
    Zr146  O388      1.33409      .   S
    Zr4    O388      1.33409  1_455   S
    Zr146  O389      1.21260  1_545   S
    Zr19   O389      1.21260      .   S
    Zr147  O390      1.33409      .   S
    Zr5    O390      1.33409  1_455   S
    Zr147  O391      1.21256      .   S
    Zr18   O391      1.21256      .   S
    Zr148  O392      1.26494      .   S
    Zr6    O392      1.26494      .   S
    Zr149  O393      1.26494      .   S
    Zr7    O393      1.26494      .   S
    Zr150  O394      1.26480      .   S
    Zr4    O394      1.26480  1_455   S
    Zr151  O395      1.26480      .   S
    Zr5    O395      1.26480  1_455   S
    Zr152  O396      1.21142      .   S
    Zr0    O396      1.21142      .   S
    Zr153  O397      1.21142      .   S
    Zr1    O397      1.21142      .   S
    Zr154  O398      1.21142      .   S
    Zr2    O398      1.21142      .   S
    Zr155  O399      1.21141      .   S
    Zr3    O399      1.21141      .   S
    Zr156  O400      1.20372      .   S
    Zr0    O400      1.20372      .   S
    Zr157  O401      1.20372      .   S
    Zr1    O401      1.20372      .   S
    Zr158  O402      1.20372      .   S
    Zr2    O402      1.20372      .   S
    Zr159  O403      1.20372      .   S
    Zr3    O403      1.20372      .   S
    Zr160  O404      1.25294      .   S
    Zr8    O404      1.25294      .   S
    Zr160  O405      1.26665      .   S
    Zr16   O405      1.26665      .   S
    Zr161  O406      1.25294      .   S
    Zr9    O406      1.25294      .   S
    Zr161  O407      1.26665      .   S
    Zr17   O407      1.26665      .   S
    Zr162  O408      1.25294      .   S
    Zr10   O408      1.25294      .   S
    Zr162  O409      1.26665      .   S
    Zr18   O409      1.26665      .   S
    Zr163  O410      1.25294      .   S
    Zr11   O410      1.25294      .   S
    Zr163  O411      1.26665      .   S
    Zr19   O411      1.26665      .   S
    N412   O413      0.39092      .   S
    Zr45   O413      1.17277      .   S
    N412   O414      1.83719      .   S
    Zr5    O414      2.03706      .   S
    N412   O415      1.49510      .   S
    Zr13   O415      0.44224      .   S
    N412   O416      1.84850      .   S
    Zr36   O416      1.25698      .   S
    N412   O417      1.86130      .   S
    Zr41   O417      1.25138      .   S
    N418   O419      0.39092      .   S
    Zr59   O419      1.17277      .   S
    N418   O420      1.86146      .   S
    Zr49   O420      1.25144      .   S
    N418   O421      1.84870      .   S
    Zr53   O421      1.25710      .   S
    N418   O422      1.83746      .   S
    Zr21   O422      2.03771      .   S
    N423   O424      0.39088      .   S
    Zr56   O424      1.17265  1_455   S
    N423   O425      1.84869      .   S
    Zr54   O425      1.25707      .   S
    N423   O426      1.86138  1_655   S
    Zr50   O426      1.25130  1_655   S
    N423   O427      1.83746      .   S
    Zr22   O427      2.03771      .   S
    N428   O429      0.39087      .   S
    Zr34   O429      1.17262  1_655   S
    N428   O430      1.86132  1_455   S
    Zr24   O430      1.25124  1_455   S
    N428   O431      1.83744      .   S
    Zr8    O431      2.03771      .   S
    N428   O432      1.84881      .   S
    Zr28   O432      1.25700      .   S
    N433   O434      0.39089      .   S
    Zr32   O434      1.17268      .   S
    N433   O435      1.83744      .   S
    Zr10   O435      2.03771      .   S
    N433   O436      1.84882      .   S
    Zr30   O436      1.25704      .   S
    N433   O437      1.86133      .   S
    Zr26   O437      1.25148      .   S
    N438   O439      0.39092      .   S
    Zr44   O439      1.17277      .   S
    N438   O440      1.84854  1_545   S
    Zr37   O440      1.25699      .   S
    N438   O441      1.86521      .   S
    Zr40   O441      1.25323      .   S
    N438   O442      1.83718      .   S
    Zr4    O442      2.03723      .   S
    N438   O443      1.49515      .   S
    Zr12   O443      0.44241      .   S
    N444   O445      0.39092      .   S
    Zr58   O445      1.17277      .   S
    N444   O446      1.83746      .   S
    Zr20   O446      2.03771      .   S
    N444   O447      1.84870      .   S
    Zr52   O447      1.25710      .   S
    N444   O448      1.86146      .   S
    Zr48   O448      1.25144      .   S
    N449   O450      0.39092      .   S
    Zr70   O450      1.17277      .   S
    N449   O451      1.83720      .   S
    Zr18   O451      2.03713      .   S
    N449   O452      1.86005      .   S
    Zr66   O452      1.25167      .   S
    N449   O453      1.84861      .   S
    Zr63   O453      1.25699      .   S
    N454   O455      0.39092      .   S
    Zr46   O455      1.17277      .   S
    N454   O456      1.86521      .   S
    Zr42   O456      1.25323      .   S
    N454   O457      1.84854  1_545   S
    Zr39   O457      1.25699      .   S
    N454   O458      1.83718      .   S
    Zr6    O458      2.03723      .   S
    N454   O459      1.49515      .   S
    Zr14   O459      0.44241      .   S
    N460   O461      0.39092      .   S
    Zr68   O461      1.17277      .   S
    N460   O462      1.84861      .   S
    Zr61   O462      1.25699      .   S
    N460   O463      1.86005      .   S
    Zr64   O463      1.25167      .   S
    N460   O464      1.83720      .   S
    Zr16   O464      2.03713      .   S
    N465   O466      0.39092      .   S
    Zr47   O466      1.17277      .   S
    N465   O467      1.84850      .   S
    Zr38   O467      1.25699      .   S
    N465   O468      1.49510      .   S
    Zr15   O468      0.44224      .   S
    N465   O469      1.83719      .   S
    Zr7    O469      2.03706      .   S
    N465   O470      1.86130      .   S
    Zr43   O470      1.25138      .   S
    N471   O472      0.39093      .   S
    Zr71   O472      1.17278      .   S
    N471   O473      1.86105      .   S
    Zr67   O473      1.25088      .   S
    N471   O474      1.83719      .   S
    Zr19   O474      2.03713      .   S
    N471   O475      1.84864  1_565   S
    Zr62   O475      1.25700      .   S
    N476   O477      0.39088      .   S
    Zr57   O477      1.17265  1_455   S
    N476   O478      1.83746      .   S
    Zr23   O478      2.03771      .   S
    N476   O479      1.86138  1_655   S
    Zr51   O479      1.25130  1_655   S
    N476   O480      1.84869      .   S
    Zr55   O480      1.25707      .   S
    N481   O482      0.39089      .   S
    Zr33   O482      1.17268      .   S
    N481   O483      1.83744      .   S
    Zr11   O483      2.03771      .   S
    N481   O484      1.86133      .   S
    Zr27   O484      1.25148      .   S
    N481   O485      1.84882      .   S
    Zr31   O485      1.25704      .   S
    N486   O487      0.39085      .   S
    Zr35   O487      1.17256  1_655   S
    N486   O488      1.84881      .   S
    Zr29   O488      1.25701      .   S
    N486   O489      1.83744      .   S
    Zr9    O489      2.03771      .   S
    N486   O490      1.86125  1_455   S
    Zr25   O490      1.25134  1_455   S
    N491   O492      0.39092      .   S
    Zr69   O492      1.17277      .   S
    N491   O493      1.84864  1_565   S
    Zr60   O493      1.25700      .   S
    N491   O494      1.86105      .   S
    Zr65   O494      1.25088      .   S
    N491   O495      1.83720      .   S
    Zr17   O495      2.03713      .   S
