# CIF file generated by openbabel 2.4.90, see http://openbabel.sf.net
data_I
_chemical_name_common ''
_cell_length_a 12.318
_cell_length_b 21.045
_cell_length_c 16.643
_cell_angle_alpha 71.59
_cell_angle_beta 83.891
_cell_angle_gamma 90.005
_space_group_name_H-M_alt 'P 1'
_space_group_name_Hall 'P 1'
loop_
    _symmetry_equiv_pos_as_xyz
    x,y,z
loop_
    _atom_site_label
    _atom_site_type_symbol
    _atom_site_fract_x
    _atom_site_fract_y
    _atom_site_fract_z
    _atom_site_occupancy
    Zr0     Zr   0.37506   0.45213   0.99997   1.000
    Zr1     Zr   0.37506   0.95213   0.99997   1.000
    Zr2     Zr   0.87507   0.45213   0.99997   1.000
    Zr3     Zr   0.87508   0.95213   0.99997   1.000
    Zr4     Zr   0.02084   0.09187   0.39623   1.000
    Zr5     Zr   0.02084   0.59187   0.39623   1.000
    Zr6     Zr   0.52085   0.09187   0.39623   1.000
    Zr7     Zr   0.52085   0.59187   0.39623   1.000
    Zr8     Zr   0.22919   0.29006   0.60372   1.000
    Zr9     Zr   0.22919   0.79006   0.60372   1.000
    Zr10    Zr   0.72920   0.29006   0.60372   1.000
    Zr11    Zr   0.72921   0.79006   0.60372   1.000
    Zr12    Zr   0.12496   0.04787   0.30000   1.000
    Zr13    Zr   0.12497   0.54787   0.30000   1.000
    Zr14    Zr   0.62498   0.04787   0.30000   1.000
    Zr15    Zr   0.62498   0.54787   0.30000   1.000
    Zr16    Zr   0.47919   0.40812   0.60376   1.000
    Zr17    Zr   0.47919   0.90812   0.60376   1.000
    Zr18    Zr   0.97920   0.40812   0.60376   1.000
    Zr19    Zr   0.97920   0.90812   0.60376   1.000
    Zr20    Zr   0.27083   0.20993   0.39627   1.000
    Zr21    Zr   0.27084   0.70993   0.39627   1.000
    Zr22    Zr   0.77085   0.20993   0.39627   1.000
    Zr23    Zr   0.77085   0.70993   0.39627   1.000
    N24     N    0.22182   0.51592   0.30538   1.000
    O25     O    0.08338   0.54812   0.30910   1.000
    O26     O    0.10941   0.53712   0.28504   1.000
    N27     N    0.47183   0.83132   0.30528   1.000
    O28     O    0.33340   0.79719   0.30902   1.000
    N29     N    0.97184   0.33132   0.30528   1.000
    O30     O    0.83341   0.29719   0.30902   1.000
    N31     N    0.02819   0.16868   0.69472   1.000
    O32     O    0.16662   0.20280   0.69098   1.000
    N33     N    0.52821   0.16868   0.69472   1.000
    O34     O    0.66664   0.20280   0.69098   1.000
    N35     N    0.22182   0.01592   0.30538   1.000
    O36     O    0.08337   0.04812   0.30909   1.000
    O37     O    0.10941   0.03712   0.28503   1.000
    N38     N    0.47183   0.33132   0.30528   1.000
    O39     O    0.33340   0.29719   0.30902   1.000
    N40     N    0.77822   0.48407   0.69462   1.000
    O41     O    0.91666   0.45188   0.69090   1.000
    N42     N    0.72183   0.01592   0.30538   1.000
    O43     O    0.58339   0.04812   0.30909   1.000
    O44     O    0.60942   0.03712   0.28503   1.000
    N45     N    0.27821   0.48407   0.69462   1.000
    O46     O    0.41665   0.45188   0.69090   1.000
    N47     N    0.72183   0.51592   0.30538   1.000
    O48     O    0.60942   0.53712   0.28504   1.000
    O49     O    0.58339   0.54812   0.30910   1.000
    N50     N    0.77822   0.98407   0.69462   1.000
    O51     O    0.91667   0.95187   0.69090   1.000
    N52     N    0.97185   0.83132   0.30528   1.000
    O53     O    0.83342   0.79719   0.30902   1.000
    N54     N    0.52821   0.66868   0.69472   1.000
    O55     O    0.66664   0.70280   0.69098   1.000
    N56     N    0.02820   0.66868   0.69472   1.000
    O57     O    0.16663   0.70280   0.69098   1.000
    N58     N    0.27821   0.98407   0.69462   1.000
    O59     O    0.41665   0.95187   0.69090   1.000
    C60     C    0.72387   0.03692   0.11674   1.000
    O61     O    0.77629   0.00995   0.07767   1.000
    O62     O    0.75363   0.01921   0.16114   1.000
    O63     O    0.68150   0.04714   0.16628   1.000
    C64     C    0.61038   0.18531   0.51322   1.000
    O65     O    0.56525   0.16597   0.55480   1.000
    O66     O    0.58589   0.15177   0.47645   1.000
    O67     O    0.64839   0.18128   0.47646   1.000
    O68     O    0.64739   0.22358   0.53777   1.000
    O69     O    0.65780   0.20355   0.48591   1.000
    C70     C    0.47395   0.40444   0.11657   1.000
    O71     O    0.50370   0.39978   0.16096   1.000
    O72     O    0.46382   0.42709   0.07755   1.000
    O73     O    0.43161   0.40699   0.09113   1.000
    C74     C    0.61039   0.68531   0.51322   1.000
    O75     O    0.58590   0.65177   0.47645   1.000
    O76     O    0.64840   0.68128   0.47646   1.000
    O77     O    0.56526   0.66597   0.55480   1.000
    O78     O    0.64739   0.72358   0.53777   1.000
    O79     O    0.65780   0.70355   0.48591   1.000
    C80     C    0.97396   0.90444   0.11657   1.000
    O81     O    0.96382   0.92709   0.07755   1.000
    O82     O    0.00370   0.89978   0.16096   1.000
    O83     O    0.93163   0.90698   0.09113   1.000
    C84     C    0.63972   0.44206   0.48690   1.000
    O85     O    0.66417   0.39012   0.52364   1.000
    O86     O    0.60166   0.41963   0.52365   1.000
    O87     O    0.60273   0.49257   0.46230   1.000
    O88     O    0.62876   0.48157   0.43824   1.000
    O89     O    0.59232   0.44663   0.51418   1.000
    O90     O    0.68485   0.44346   0.44534   1.000
    C91     C    0.13970   0.94206   0.48690   1.000
    O92     O    0.16416   0.89012   0.52364   1.000
    O93     O    0.10166   0.91963   0.52365   1.000
    O94     O    0.18484   0.94346   0.44534   1.000
    O95     O    0.10272   0.99257   0.46230   1.000
    O96     O    0.12875   0.98157   0.43824   1.000
    O97     O    0.09231   0.94663   0.51418   1.000
    C98     C    0.77618   0.46308   0.88324   1.000
    O99     O    0.81855   0.45285   0.90870   1.000
    O100    O    0.74642   0.48058   0.83881   1.000
    O101    O    0.78629   0.46611   0.92230   1.000
    C102    C    0.27617   0.46308   0.88324   1.000
    O103    O    0.24641   0.48058   0.83881   1.000
    O104    O    0.28628   0.46611   0.92230   1.000
    O105    O    0.31854   0.45285   0.90870   1.000
    C106    C    0.29246   0.59303   0.32097   1.000
    O107    O    0.37182   0.58900   0.33769   1.000
    O108    O    0.26422   0.56228   0.31466   1.000
    O109    O    0.20580   0.60015   0.34280   1.000
    O110    O    0.23183   0.58915   0.31875   1.000
    O111    O    0.26830   0.62967   0.34281   1.000
    C112    C    0.22386   0.53691   0.11674   1.000
    O113    O    0.25362   0.51942   0.16114   1.000
    O114    O    0.18149   0.54714   0.16628   1.000
    O115    O    0.27627   0.50995   0.07767   1.000
    C116    C    0.95753   0.75355   0.67905   1.000
    O117    O    0.04419   0.77161   0.65720   1.000
    O118    O    0.98170   0.80112   0.65721   1.000
    O119    O    0.98578   0.71966   0.68538   1.000
    O120    O    0.87819   0.75788   0.66232   1.000
    C121    C    0.29246   0.09303   0.32097   1.000
    O122    O    0.37182   0.08900   0.33769   1.000
    O123    O    0.20579   0.10015   0.34280   1.000
    O124    O    0.23182   0.08915   0.31875   1.000
    O125    O    0.26829   0.12967   0.34281   1.000
    O126    O    0.26422   0.06228   0.31466   1.000
    C127    C    0.36032   0.05793   0.51310   1.000
    O128    O    0.31518   0.05653   0.55465   1.000
    O129    O    0.39837   0.08036   0.47635   1.000
    O130    O    0.33587   0.10988   0.47636   1.000
    O131    O    0.40772   0.05336   0.48582   1.000
    O132    O    0.39730   0.00743   0.53770   1.000
    C133    C    0.72387   0.53691   0.11674   1.000
    O134    O    0.75363   0.51942   0.16114   1.000
    O135    O    0.68150   0.54714   0.16628   1.000
    O136    O    0.77629   0.50995   0.07767   1.000
    C137    C    0.13970   0.44206   0.48690   1.000
    O138    O    0.18484   0.44346   0.44534   1.000
    O139    O    0.10272   0.49257   0.46230   1.000
    O140    O    0.12875   0.48157   0.43824   1.000
    O141    O    0.09231   0.44663   0.51418   1.000
    O142    O    0.10165   0.41963   0.52365   1.000
    O143    O    0.16415   0.39012   0.52364   1.000
    C144    C    0.22385   0.03692   0.11674   1.000
    O145    O    0.27627   0.00995   0.07767   1.000
    O146    O    0.18148   0.04714   0.16628   1.000
    O147    O    0.25362   0.01921   0.16114   1.000
    C148    C    0.54252   0.74644   0.32093   1.000
    O149    O    0.51426   0.78034   0.31460   1.000
    O150    O    0.45584   0.72839   0.34279   1.000
    O151    O    0.51835   0.69887   0.34278   1.000
    O152    O    0.62186   0.74211   0.33767   1.000
    C153    C    0.95752   0.25355   0.67906   1.000
    O154    O    0.04419   0.27161   0.65721   1.000
    O155    O    0.98169   0.30112   0.65722   1.000
    O156    O    0.98578   0.21966   0.68539   1.000
    O157    O    0.87818   0.25788   0.66233   1.000
    C158    C    0.63972   0.94206   0.48690   1.000
    O159    O    0.68485   0.94346   0.44534   1.000
    O160    O    0.66417   0.89012   0.52364   1.000
    O161    O    0.60167   0.91963   0.52365   1.000
    O162    O    0.60274   0.99257   0.46230   1.000
    O163    O    0.62877   0.98157   0.43824   1.000
    O164    O    0.59232   0.94663   0.51418   1.000
    C165    C    0.70758   0.40696   0.67903   1.000
    O166    O    0.73582   0.43772   0.68534   1.000
    O167    O    0.62822   0.41100   0.66230   1.000
    O168    O    0.73174   0.37032   0.65718   1.000
    O169    O    0.79424   0.39984   0.65719   1.000
    C170    C    0.54252   0.24644   0.32093   1.000
    O171    O    0.51835   0.19887   0.34278   1.000
    O172    O    0.45584   0.22839   0.34279   1.000
    O173    O    0.62186   0.24211   0.33767   1.000
    O174    O    0.51426   0.28034   0.31460   1.000
    C175    C    0.38966   0.81469   0.48678   1.000
    O176    O    0.43478   0.83402   0.44520   1.000
    O177    O    0.34224   0.79645   0.51409   1.000
    O178    O    0.35265   0.77642   0.46223   1.000
    O179    O    0.41415   0.84823   0.52355   1.000
    O180    O    0.35165   0.81871   0.52354   1.000
    C181    C    0.02609   0.59555   0.88343   1.000
    O182    O    0.97375   0.54897   0.92243   1.000
    O183    O    0.99634   0.60021   0.83903   1.000
    C184    C    0.11037   0.18531   0.51322   1.000
    O185    O    0.06524   0.16597   0.55480   1.000
    O186    O    0.08588   0.15177   0.47645   1.000
    O187    O    0.14838   0.18128   0.47646   1.000
    O188    O    0.14737   0.22358   0.53777   1.000
    O189    O    0.15778   0.20355   0.48591   1.000
    C190    C    0.38965   0.31469   0.48678   1.000
    O191    O    0.43478   0.33402   0.44520   1.000
    O192    O    0.35164   0.31871   0.52354   1.000
    O193    O    0.41414   0.34823   0.52355   1.000
    O194    O    0.34224   0.29645   0.51409   1.000
    O195    O    0.35265   0.27642   0.46223   1.000
    C196    C    0.36032   0.55793   0.51310   1.000
    O197    O    0.33587   0.60988   0.47636   1.000
    O198    O    0.39838   0.58036   0.47635   1.000
    O199    O    0.40772   0.55336   0.48582   1.000
    O200    O    0.39731   0.50743   0.53770   1.000
    O201    O    0.31519   0.55653   0.55465   1.000
    C202    C    0.88967   0.81469   0.48678   1.000
    O203    O    0.84226   0.79645   0.51409   1.000
    O204    O    0.85267   0.77642   0.46223   1.000
    O205    O    0.93480   0.83402   0.44520   1.000
    O206    O    0.91416   0.84823   0.52355   1.000
    O207    O    0.85166   0.81871   0.52354   1.000
    C208    C    0.97396   0.40444   0.11657   1.000
    O209    O    0.00370   0.39978   0.16096   1.000
    O210    O    0.93162   0.40699   0.09113   1.000
    O211    O    0.96382   0.42709   0.07755   1.000
    C212    C    0.52609   0.09555   0.88343   1.000
    O213    O    0.47374   0.04897   0.92243   1.000
    O214    O    0.49634   0.10022   0.83903   1.000
    C215    C    0.86034   0.55793   0.51310   1.000
    O216    O    0.90773   0.55336   0.48582   1.000
    O217    O    0.89732   0.50743   0.53770   1.000
    O218    O    0.83589   0.60988   0.47636   1.000
    O219    O    0.89838   0.58036   0.47635   1.000
    O220    O    0.81520   0.55653   0.55465   1.000
    C221    C    0.20756   0.40696   0.67903   1.000
    O222    O    0.12821   0.41100   0.66230   1.000
    O223    O    0.23173   0.37032   0.65718   1.000
    O224    O    0.29423   0.39984   0.65719   1.000
    O225    O    0.23581   0.43772   0.68534   1.000
    C226    C    0.45752   0.25355   0.67905   1.000
    O227    O    0.54419   0.27161   0.65720   1.000
    O228    O    0.48169   0.30112   0.65721   1.000
    O229    O    0.48578   0.21966   0.68538   1.000
    O230    O    0.37818   0.25788   0.66232   1.000
    C231    C    0.52609   0.59555   0.88343   1.000
    O232    O    0.47374   0.54897   0.92243   1.000
    O233    O    0.49634   0.60021   0.83903   1.000
    C234    C    0.86034   0.05793   0.51310   1.000
    O235    O    0.83588   0.10988   0.47636   1.000
    O236    O    0.89838   0.08036   0.47635   1.000
    O237    O    0.81520   0.05653   0.55465   1.000
    O238    O    0.90773   0.05336   0.48582   1.000
    O239    O    0.89732   0.00743   0.53770   1.000
    C240    C    0.11037   0.68531   0.51322   1.000
    O241    O    0.14738   0.72358   0.53777   1.000
    O242    O    0.15779   0.70355   0.48591   1.000
    O243    O    0.08588   0.65177   0.47645   1.000
    O244    O    0.14838   0.68128   0.47646   1.000
    O245    O    0.06525   0.66597   0.55480   1.000
    C246    C    0.20757   0.90696   0.67903   1.000
    O247    O    0.23581   0.93771   0.68534   1.000
    O248    O    0.23173   0.87032   0.65718   1.000
    O249    O    0.29423   0.89984   0.65719   1.000
    O250    O    0.12822   0.91100   0.66230   1.000
    C251    C    0.47395   0.90444   0.11657   1.000
    O252    O    0.50370   0.89978   0.16096   1.000
    O253    O    0.43162   0.90698   0.09113   1.000
    O254    O    0.46382   0.92709   0.07755   1.000
    C255    C    0.79247   0.09303   0.32097   1.000
    O256    O    0.76423   0.06228   0.31466   1.000
    O257    O    0.87182   0.08900   0.33769   1.000
    O258    O    0.70581   0.10015   0.34280   1.000
    O259    O    0.73184   0.08915   0.31875   1.000
    O260    O    0.76831   0.12967   0.34281   1.000
    C261    C    0.45752   0.75355   0.67905   1.000
    O262    O    0.54420   0.77161   0.65720   1.000
    O263    O    0.48169   0.80112   0.65721   1.000
    O264    O    0.37818   0.75788   0.66232   1.000
    O265    O    0.48578   0.71966   0.68538   1.000
    C266    C    0.04252   0.74644   0.32093   1.000
    O267    O    0.12185   0.74211   0.33767   1.000
    O268    O    0.01426   0.78034   0.31460   1.000
    O269    O    0.01835   0.69887   0.34278   1.000
    O270    O    0.95585   0.72839   0.34279   1.000
    C271    C    0.88967   0.31469   0.48678   1.000
    O272    O    0.93479   0.33402   0.44520   1.000
    O273    O    0.91416   0.34823   0.52355   1.000
    O274    O    0.85166   0.31871   0.52354   1.000
    O275    O    0.84225   0.29645   0.51409   1.000
    O276    O    0.85266   0.27642   0.46223   1.000
    C277    C    0.70758   0.90696   0.67903   1.000
    O278    O    0.62822   0.91100   0.66230   1.000
    O279    O    0.73582   0.93771   0.68534   1.000
    O280    O    0.73175   0.87032   0.65718   1.000
    O281    O    0.79425   0.89984   0.65719   1.000
    C282    C    0.27617   0.96308   0.88324   1.000
    O283    O    0.31854   0.95285   0.90870   1.000
    O284    O    0.24641   0.98058   0.83884   1.000
    O285    O    0.28628   0.96611   0.92230   1.000
    C286    C    0.04251   0.24644   0.32093   1.000
    O287    O    0.01834   0.19887   0.34278   1.000
    O288    O    0.95585   0.22839   0.34279   1.000
    O289    O    0.01426   0.28034   0.31460   1.000
    O290    O    0.12185   0.24211   0.33767   1.000
    C291    C    0.79247   0.59303   0.32097   1.000
    O292    O    0.76423   0.56228   0.31466   1.000
    O293    O    0.70581   0.60015   0.34280   1.000
    O294    O    0.73184   0.58915   0.31875   1.000
    O295    O    0.76831   0.62967   0.34281   1.000
    O296    O    0.87183   0.58900   0.33769   1.000
    C297    C    0.02608   0.09555   0.88343   1.000
    O298    O    0.97375   0.04897   0.92243   1.000
    O299    O    0.99634   0.10022   0.83903   1.000
    C300    C    0.77619   0.96308   0.88324   1.000
    O301    O    0.78629   0.96611   0.92230   1.000
    O302    O    0.74642   0.98058   0.83884   1.000
    O303    O    0.81856   0.95285   0.90870   1.000
loop_
    _geom_bond_atom_site_label_1
    _geom_bond_atom_site_label_2
    _geom_bond_distance
    _geom_bond_site_symmetry_2
    _ccdc_geom_bond_type
    N24    O25       1.83719      .   S
    Zr5    O25       2.03706      .   S
    N24    O26       1.49510      .   S
    Zr13   O26       0.44224      .   S
    N27    O28       1.83746      .   S
    Zr21   O28       2.03771      .   S
    N29    O30       1.83746      .   S
    Zr22   O30       2.03771      .   S
    N31    O32       1.83744      .   S
    Zr8    O32       2.03771      .   S
    N33    O34       1.83744      .   S
    Zr10   O34       2.03771      .   S
    N35    O36       1.83718      .   S
    Zr4    O36       2.03723      .   S
    N35    O37       1.49515      .   S
    Zr12   O37       0.44241      .   S
    N38    O39       1.83746      .   S
    Zr20   O39       2.03771      .   S
    N40    O41       1.83720      .   S
    Zr18   O41       2.03713      .   S
    N42    O43       1.83718      .   S
    Zr6    O43       2.03723      .   S
    N42    O44       1.49515      .   S
    Zr14   O44       0.44241      .   S
    N45    O46       1.83720      .   S
    Zr16   O46       2.03713      .   S
    N47    O48       1.49510      .   S
    Zr15   O48       0.44224      .   S
    N47    O49       1.83719      .   S
    Zr7    O49       2.03706      .   S
    N50    O51       1.83719      .   S
    Zr19   O51       2.03713      .   S
    N52    O53       1.83746      .   S
    Zr23   O53       2.03771      .   S
    N54    O55       1.83744      .   S
    Zr11   O55       2.03771      .   S
    N56    O57       1.83744      .   S
    Zr9    O57       2.03771      .   S
    N58    O59       1.83720      .   S
    Zr17   O59       2.03713      .   S
    C60    O61       1.14261      .   S
    Zr3    O61       2.30072  1_566   S
    C60    O62       0.83848      .   S
    N42    O62       2.36987      .   S
    C60    O63       1.00948      .   S
    Zr14   O63       2.26484      .   S
    C64    O65       0.83286      .   S
    N33    O65       2.34350      .   S
    C64    O66       1.12958      .   S
    Zr6    O66       2.30293      .   S
    C64    O67       0.75667      .   S
    Zr22   O67       1.86625      .   S
    C64    O68       1.12730      .   S
    Zr10   O68       2.32021      .   S
    C64    O69       0.72688      .   S
    Zr22   O69       1.90102      .   S
    C70    O71       0.83770      .   S
    N38    O71       2.36901      .   S
    C70    O72       0.69725      .   S
    Zr0    O72       1.73521  1_556   S
    C70    O73       0.69762      .   S
    Zr0    O73       1.73333  1_556   S
    C74    O75       1.12958      .   S
    Zr7    O75       2.30293      .   S
    C74    O76       0.75667      .   S
    Zr23   O76       1.86625      .   S
    C74    O77       0.83286      .   S
    N54    O77       2.34350      .   S
    C74    O78       1.12730      .   S
    Zr11   O78       2.32021      .   S
    C74    O79       0.72687      .   S
    Zr23   O79       1.90102      .   S
    C80    O81       0.69726      .   S
    Zr3    O81       1.73511  1_556   S
    C80    O82       0.83766  1_655   S
    N52    O82       2.36900  1_655   S
    C80    O83       0.69757      .   S
    Zr3    O83       1.73330  1_556   S
    C84    O85       1.12992      .   S
    Zr10   O85       2.30368      .   S
    C84    O86       0.75714      .   S
    Zr16   O86       1.86551      .   S
    C84    O87       1.12684      .   S
    Zr7    O87       2.31916      .   S
    C84    O88       0.98142      .   S
    Zr15   O88       2.28854      .   S
    C84    O89       0.72626      .   S
    Zr16   O89       1.90156      .   S
    C84    O90       0.83280      .   S
    N47    O90       2.34295      .   S
    C91    O92       1.12992      .   S
    Zr9    O92       2.30368      .   S
    C91    O93       0.75709      .   S
    Zr19   O93       1.86532  1_655   S
    C91    O94       0.83280      .   S
    N35    O94       2.34295  1_545   S
    C91    O95       1.12685      .   S
    Zr4    O95       2.31922  1_545   S
    C91    O96       0.98144      .   S
    Zr12   O96       2.28856  1_545   S
    C91    O97       0.72620      .   S
    Zr19   O97       1.90139  1_655   S
    C98    O99       0.69842      .   S
    Zr2    O99       1.73288      .   S
    C98    O100      0.83814      .   S
    N40    O100      2.36772      .   S
    C98    O101      0.69692      .   S
    Zr2    O101      1.73616      .   S
    C102   O103      0.83814      .   S
    N45    O103      2.36772      .   S
    C102   O104      0.69692      .   S
    Zr0    O104      1.73616      .   S
    C102   O105      0.69842      .   S
    Zr0    O105      1.73288      .   S
    C106   O107      1.04078      .   S
    Zr7    O107      2.17738      .   S
    C106   O108      0.77555      .   S
    N24    O108      1.16646      .   S
    C106   O109      1.11625      .   S
    Zr5    O109      2.34148      .   S
    C106   O110      0.75738      .   S
    Zr13   O110      1.68624      .   S
    C106   O111      0.98459      .   S
    Zr21   O111      2.14495      .   S
    C112   O113      0.83775      .   S
    N24    O113      2.36859      .   S
    C112   O114      1.00947      .   S
    Zr13   O114      2.26484      .   S
    C112   O115      1.14259      .   S
    Zr0    O115      2.30067  1_556   S
    C116   O117      1.11641  1_655   S
    Zr9    O117      2.34220      .   S
    C116   O118      0.98495      .   S
    Zr19   O118      2.14562      .   S
    C116   O119      0.77549      .   S
    N56    O119      1.16633  1_455   S
    C116   O120      1.04057      .   S
    Zr11   O120      2.17753      .   S
    C121   O122      1.04078      .   S
    Zr6    O122      2.17738      .   S
    C121   O123      1.11625      .   S
    Zr4    O123      2.34148      .   S
    C121   O124      0.75738      .   S
    Zr12   O124      1.68623      .   S
    C121   O125      0.98459      .   S
    Zr20   O125      2.14495      .   S
    C121   O126      0.77555      .   S
    N35    O126      1.16646      .   S
    C127   O128      0.83276      .   S
    N58    O128      2.34304  1_565   S
    C127   O129      0.75715      .   S
    Zr6    O129      1.86557      .   S
    C127   O130      1.12993      .   S
    Zr20   O130      2.30372      .   S
    C127   O131      0.72627      .   S
    Zr6    O131      1.90162      .   S
    C127   O132      1.12685      .   S
    Zr17   O132      2.31919  1_565   S
    C133   O134      0.83775      .   S
    N47    O134      2.36859      .   S
    C133   O135      1.00947      .   S
    Zr15   O135      2.26484      .   S
    C133   O136      1.14259      .   S
    Zr2    O136      2.30067  1_556   S
    C137   O138      0.83280      .   S
    N24    O138      2.34295      .   S
    C137   O139      1.12684      .   S
    Zr5    O139      2.31916      .   S
    C137   O140      0.98142      .   S
    Zr13   O140      2.28854      .   S
    C137   O141      0.72620      .   S
    Zr18   O141      1.90139  1_655   S
    C137   O142      0.75709      .   S
    Zr18   O142      1.86532  1_655   S
    C137   O143      1.12992      .   S
    Zr8    O143      2.30368      .   S
    C144   O145      1.14261      .   S
    Zr1    O145      2.30072  1_566   S
    C144   O146      1.00948      .   S
    Zr12   O146      2.26484      .   S
    C144   O147      0.83848      .   S
    N35    O147      2.36987      .   S
    C148   O149      0.77553      .   S
    N27    O149      1.16644      .   S
    C148   O150      1.11653      .   S
    Zr21   O150      2.34233      .   S
    C148   O151      0.98496      .   S
    Zr7    O151      2.14563      .   S
    C148   O152      1.04066      .   S
    Zr23   O152      2.17760      .   S
    C153   O154      1.11643  1_655   S
    Zr8    O154      2.34223      .   S
    C153   O155      0.98496      .   S
    Zr18   O155      2.14563      .   S
    C153   O156      0.77549      .   S
    N31    O156      1.16635  1_455   S
    C153   O157      1.04060      .   S
    Zr10   O157      2.17758      .   S
    C158   O159      0.83280      .   S
    N42    O159      2.34295  1_545   S
    C158   O160      1.12992      .   S
    Zr11   O160      2.30368      .   S
    C158   O161      0.75714      .   S
    Zr17   O161      1.86551      .   S
    C158   O162      1.12685      .   S
    Zr6    O162      2.31921  1_545   S
    C158   O163      0.98144      .   S
    Zr14   O163      2.28856  1_545   S
    C158   O164      0.72626      .   S
    Zr17   O164      1.90156      .   S
    C165   O166      0.77557      .   S
    N40    O166      1.16648      .   S
    C165   O167      1.04079      .   S
    Zr16   O167      2.17740      .   S
    C165   O168      0.98459      .   S
    Zr10   O168      2.14501      .   S
    C165   O169      1.11625      .   S
    Zr18   O169      2.34151      .   S
    C170   O171      0.98496      .   S
    Zr6    O171      2.14563      .   S
    C170   O172      1.11653      .   S
    Zr20   O172      2.34233      .   S
    C170   O173      1.04066      .   S
    Zr22   O173      2.17760      .   S
    C170   O174      0.77553      .   S
    N38    O174      1.16644      .   S
    C175   O176      0.83289      .   S
    N27    O176      2.34344      .   S
    C175   O177      0.72686      .   S
    Zr9    O177      1.90093      .   S
    C175   O178      1.12733      .   S
    Zr21   O178      2.32030      .   S
    C175   O179      1.12955      .   S
    Zr17   O179      2.30283      .   S
    C175   O180      0.75663      .   S
    Zr9    O180      1.86619      .   S
    C181   O182      1.14321  1_455   S
    Zr2    O182      2.30237      .   S
    C181   O183      0.83771  1_455   S
    N56    O183      2.36887  1_455   S
    C184   O185      0.83284      .   S
    N31    O185      2.34350      .   S
    C184   O186      1.12958      .   S
    Zr4    O186      2.30293      .   S
    C184   O187      0.75667      .   S
    Zr20   O187      1.86625      .   S
    C184   O188      1.12730      .   S
    Zr8    O188      2.32021      .   S
    C184   O189      0.72688      .   S
    Zr20   O189      1.90102      .   S
    C190   O191      0.83289      .   S
    N38    O191      2.34344      .   S
    C190   O192      0.75663      .   S
    Zr8    O192      1.86619      .   S
    C190   O193      1.12955      .   S
    Zr16   O193      2.30283      .   S
    C190   O194      0.72686      .   S
    Zr8    O194      1.90093      .   S
    C190   O195      1.12733      .   S
    Zr20   O195      2.32030      .   S
    C196   O197      1.12993      .   S
    Zr21   O197      2.30372      .   S
    C196   O198      0.75715      .   S
    Zr7    O198      1.86557      .   S
    C196   O199      0.72627      .   S
    Zr7    O199      1.90162      .   S
    C196   O200      1.12683      .   S
    Zr16   O200      2.31914      .   S
    C196   O201      0.83276      .   S
    N45    O201      2.34303      .   S
    C202   O203      0.72686      .   S
    Zr11   O203      1.90093      .   S
    C202   O204      1.12733      .   S
    Zr23   O204      2.32030      .   S
    C202   O205      0.83288      .   S
    N52    O205      2.34344      .   S
    C202   O206      1.12955      .   S
    Zr19   O206      2.30283      .   S
    C202   O207      0.75663      .   S
    Zr11   O207      1.86619      .   S
    C208   O209      0.83766  1_655   S
    N29    O209      2.36900  1_655   S
    C208   O210      0.69757      .   S
    Zr2    O210      1.73330  1_556   S
    C208   O211      0.69726      .   S
    Zr2    O211      1.73511  1_556   S
    C212   O213      1.14326      .   S
    Zr1    O213      2.30242  1_565   S
    C212   O214      0.83774      .   S
    N33    O214      2.36888      .   S
    C215   O216      0.72621      .   S
    Zr5    O216      1.90145  1_455   S
    C215   O217      1.12684      .   S
    Zr18   O217      2.31914      .   S
    C215   O218      1.12993      .   S
    Zr23   O218      2.30372      .   S
    C215   O219      0.75710      .   S
    Zr5    O219      1.86538  1_455   S
    C215   O220      0.83276      .   S
    N40    O220      2.34303      .   S
    C221   O222      1.04071      .   S
    Zr18   O222      2.17717  1_655   S
    C221   O223      0.98459      .   S
    Zr8    O223      2.14501      .   S
    C221   O224      1.11625      .   S
    Zr16   O224      2.34151      .   S
    C221   O225      0.77557      .   S
    N45    O225      1.16648      .   S
    C226   O227      1.11652      .   S
    Zr10   O227      2.34231      .   S
    C226   O228      0.98496      .   S
    Zr16   O228      2.14563      .   S
    C226   O229      0.77552      .   S
    N33    O229      1.16640      .   S
    C226   O230      1.04062      .   S
    Zr8    O230      2.17758      .   S
    C231   O232      1.14326      .   S
    Zr0    O232      2.30242      .   S
    C231   O233      0.83774      .   S
    N54    O233      2.36888      .   S
    C234   O235      1.12993      .   S
    Zr22   O235      2.30372      .   S
    C234   O236      0.75710      .   S
    Zr4    O236      1.86538  1_455   S
    C234   O237      0.83276      .   S
    N50    O237      2.34304  1_565   S
    C234   O238      0.72620      .   S
    Zr4    O238      1.90145  1_455   S
    C234   O239      1.12685      .   S
    Zr19   O239      2.31919  1_565   S
    C240   O241      1.12730      .   S
    Zr9    O241      2.32021      .   S
    C240   O242      0.72688      .   S
    Zr21   O242      1.90102      .   S
    C240   O243      1.12958      .   S
    Zr5    O243      2.30293      .   S
    C240   O244      0.75667      .   S
    Zr21   O244      1.86625      .   S
    C240   O245      0.83285      .   S
    N56    O245      2.34350      .   S
    C246   O247      0.77557      .   S
    N58    O247      1.16648      .   S
    C246   O248      0.98459      .   S
    Zr9    O248      2.14501      .   S
    C246   O249      1.11625      .   S
    Zr17   O249      2.34151      .   S
    C246   O250      1.04071      .   S
    Zr19   O250      2.17717  1_655   S
    C251   O252      0.83770      .   S
    N27    O252      2.36901      .   S
    C251   O253      0.69762      .   S
    Zr1    O253      1.73333  1_556   S
    C251   O254      0.69725      .   S
    Zr1    O254      1.73521  1_556   S
    C255   O256      0.77555      .   S
    N42    O256      1.16647      .   S
    C255   O257      1.04069      .   S
    Zr4    O257      2.17714  1_455   S
    C255   O258      1.11624      .   S
    Zr6    O258      2.34148      .   S
    C255   O259      0.75738      .   S
    Zr14   O259      1.68623      .   S
    C255   O260      0.98458      .   S
    Zr22   O260      2.14494      .   S
    C261   O262      1.11652      .   S
    Zr11   O262      2.34231      .   S
    C261   O263      0.98496      .   S
    Zr17   O263      2.14563      .   S
    C261   O264      1.04062      .   S
    Zr9    O264      2.17758      .   S
    C261   O265      0.77552      .   S
    N54    O265      1.16640      .   S
    C266   O267      1.04061      .   S
    Zr21   O267      2.17755      .   S
    C266   O268      0.77550      .   S
    N52    O268      1.16637  1_655   S
    C266   O269      0.98495      .   S
    Zr5    O269      2.14562      .   S
    C266   O270      1.11642  1_455   S
    Zr23   O270      2.34222      .   S
    C271   O272      0.83288      .   S
    N29    O272      2.34344      .   S
    C271   O273      1.12955      .   S
    Zr18   O273      2.30283      .   S
    C271   O274      0.75663      .   S
    Zr10   O274      1.86619      .   S
    C271   O275      0.72686      .   S
    Zr10   O275      1.90093      .   S
    C271   O276      1.12733      .   S
    Zr22   O276      2.32030      .   S
    C277   O278      1.04079      .   S
    Zr17   O278      2.17740      .   S
    C277   O279      0.77557      .   S
    N50    O279      1.16648      .   S
    C277   O280      0.98459      .   S
    Zr11   O280      2.14501      .   S
    C277   O281      1.11625      .   S
    Zr19   O281      2.34151      .   S
    C282   O283      0.69842      .   S
    Zr1    O283      1.73288      .   S
    C282   O284      0.83772      .   S
    N58    O284      2.36826      .   S
    C282   O285      0.69692      .   S
    Zr1    O285      1.73616      .   S
    C286   O287      0.98495      .   S
    Zr4    O287      2.14562      .   S
    C286   O288      1.11642  1_455   S
    Zr22   O288      2.34222      .   S
    C286   O289      0.77549      .   S
    N29    O289      1.16637  1_655   S
    C286   O290      1.04061      .   S
    Zr20   O290      2.17755      .   S
    C291   O292      0.77555      .   S
    N47    O292      1.16646      .   S
    C291   O293      1.11625      .   S
    Zr7    O293      2.34148      .   S
    C291   O294      0.75738      .   S
    Zr15   O294      1.68624      .   S
    C291   O295      0.98459      .   S
    Zr23   O295      2.14495      .   S
    C291   O296      1.04069      .   S
    Zr5    O296      2.17715  1_455   S
    C297   O298      1.14320  1_455   S
    Zr3    O298      2.30237  1_565   S
    C297   O299      0.83765  1_455   S
    N31    O299      2.36892  1_455   S
    C300   O301      0.69692      .   S
    Zr3    O301      1.73616      .   S
    C300   O302      0.83773      .   S
    N50    O302      2.36826      .   S
    C300   O303      0.69842      .   S
    Zr3    O303      1.73288      .   S
