# CIF file generated by openbabel 2.4.90, see http://openbabel.sf.net
data_I
_chemical_name_common ''
_cell_length_a 14.017
_cell_length_b 15.199
_cell_length_c 15.249
_cell_angle_alpha 85.04
_cell_angle_beta 87.603
_cell_angle_gamma 83.928
_space_group_name_H-M_alt 'P 1'
_space_group_name_Hall 'P 1'
loop_
    _symmetry_equiv_pos_as_xyz
    x,y,z
loop_
    _atom_site_label
    _atom_site_type_symbol
    _atom_site_fract_x
    _atom_site_fract_y
    _atom_site_fract_z
    _atom_site_occupancy
    N0      N    0.19668   0.88841   0.65841   1.000
    N1      N    0.22776   0.38968   0.16024   1.000
    N2      N    0.71212   0.88615   0.15713   1.000
    N3      N    0.80339   0.11156   0.34159   1.000
    N4      N    0.28795   0.11382   0.84287   1.000
    N5      N    0.77229   0.61028   0.83976   1.000
    Zr6     Zr   0.78905   0.10921   0.84254   1.000
    O7      O    0.95751   0.10815   0.84218   1.000
    O8      O    0.61985   0.11325   0.84325   1.000
    Zr9     Zr   0.21100   0.89076   0.15746   1.000
    O10     O    0.38021   0.88672   0.15675   1.000
    O11     O    0.04255   0.89181   0.15782   1.000
    O12     O    0.79162   0.10907   0.98426   1.000
    O13     O    0.79299   0.11020   0.70047   1.000
    O14     O    0.78575   0.96751   0.84254   1.000
    O15     O    0.78418   0.25115   0.84118   1.000
    O16     O    0.20707   0.88977   0.29953   1.000
    O17     O    0.20845   0.89090   0.01574   1.000
    O18     O    0.21431   0.03245   0.15746   1.000
    O19     O    0.21587   0.74881   0.15882   1.000
loop_
    _geom_bond_atom_site_label_1
    _geom_bond_atom_site_label_2
    _geom_bond_distance
    _geom_bond_site_symmetry_2
    _ccdc_geom_bond_type
    Zr6    O7        2.35937      .   S
    N4     O7        4.64217  1_455   S
    Zr6    O8        2.36555      .   S
    N4     O8        4.65163      .   S
    Zr9    O10       2.36561      .   S
    N2     O10       4.65175      .   S
    Zr9    O11       2.35930      .   S
    N2     O11       4.64207  1_655   S
    Zr6    O12       2.16258      .   S
    N3     O12       5.46192  1_554   S
    Zr6    O13       2.16362      .   S
    N3     O13       5.46675      .   S
    Zr6    O14       2.15904  1_545   S
    N5     O14       5.45655      .   S
    Zr6    O15       2.14959      .   S
    N5     O15       5.44153      .   S
    N0     O16       5.46676      .   S
    Zr9    O16       2.16363      .   S
    N0     O17       5.46190  1_556   S
    Zr9    O17       2.16257      .   S
    N1     O18       5.45657      .   S
    Zr9    O18       2.15905  1_565   S
    N1     O19       5.44151      .   S
    Zr9    O19       2.14958      .   S
