# CIF file generated by openbabel 2.4.90, see http://openbabel.sf.net
data_I
_chemical_name_common ''
_cell_length_a 14.017
_cell_length_b 15.199
_cell_length_c 15.249
_cell_angle_alpha 85.04
_cell_angle_beta 87.603
_cell_angle_gamma 83.928
_space_group_name_H-M_alt 'P 1'
_space_group_name_Hall 'P 1'
loop_
    _symmetry_equiv_pos_as_xyz
    x,y,z
loop_
    _atom_site_label
    _atom_site_type_symbol
    _atom_site_fract_x
    _atom_site_fract_y
    _atom_site_fract_z
    _atom_site_occupancy
    N0      N    0.19668   0.88841   0.65841   1.000
    N1      N    0.22776   0.38968   0.16024   1.000
    N2      N    0.71212   0.88615   0.15713   1.000
    N3      N    0.80339   0.11156   0.34159   1.000
    N4      N    0.28795   0.11382   0.84287   1.000
    N5      N    0.77229   0.61028   0.83976   1.000
    Zr6     Zr   0.78905   0.10921   0.84254   1.000
    O7      O    0.81567   0.10605   0.70019   1.000
    O8      O    0.81431   0.10883   0.98317   1.000
    O9      O    0.95751   0.10815   0.84218   1.000
    O10     O    0.80685   0.24931   0.83853   1.000
    O11     O    0.80850   0.96490   0.84361   1.000
    O12     O    0.77030   0.11435   0.70076   1.000
    O13     O    0.76892   0.10931   0.98534   1.000
    O14     O    0.61985   0.11325   0.84325   1.000
    O15     O    0.76300   0.97012   0.84147   1.000
    O16     O    0.76152   0.25299   0.84384   1.000
    Zr17    Zr   0.21100   0.89076   0.15746   1.000
    O18     O    0.22976   0.88562   0.29924   1.000
    O19     O    0.38021   0.88672   0.15675   1.000
    O20     O    0.23115   0.89065   0.01466   1.000
    O21     O    0.23706   0.02984   0.15853   1.000
    O22     O    0.23853   0.74698   0.15616   1.000
    O23     O    0.18439   0.89392   0.29982   1.000
    O24     O    0.18576   0.89114   0.01683   1.000
    O25     O    0.04255   0.89181   0.15782   1.000
    O26     O    0.19321   0.75065   0.16147   1.000
    O27     O    0.19156   0.03507   0.15639   1.000
loop_
    _geom_bond_atom_site_label_1
    _geom_bond_atom_site_label_2
    _geom_bond_distance
    _geom_bond_site_symmetry_2
    _ccdc_geom_bond_type
    Zr6    O7        2.19099      .   S
    N3     O7        5.47124      .   S
    Zr6    O8        2.18745      .   S
    N3     O8        5.46490  1_554   S
    Zr6    O9        2.35937      .   S
    N4     O9        4.64217  1_455   S
    Zr6    O10       2.16543      .   S
    N5     O10       5.45806      .   S
    Zr6    O11       2.18015  1_545   S
    N5     O11       5.47236      .   S
    Zr6    O12       2.18257      .   S
    N3     O12       5.48068      .   S
    Zr6    O13       2.18408      .   S
    N3     O13       5.47737  1_554   S
    Zr6    O14       2.36555      .   S
    N4     O14       4.65163      .   S
    Zr6    O15       2.18453  1_545   S
    N5     O15       5.45926      .   S
    Zr6    O16       2.18025      .   S
    N5     O16       5.44347      .   S
    Zr17   O18       2.18257      .   S
    N0     O18       5.48069      .   S
    Zr17   O19       2.36561      .   S
    N2     O19       4.65175      .   S
    Zr17   O20       2.18414      .   S
    N0     O20       5.47731  1_556   S
    Zr17   O21       2.18453  1_565   S
    N1     O21       5.45928      .   S
    Zr17   O22       2.18023      .   S
    N1     O22       5.44345      .   S
    Zr17   O23       2.19100      .   S
    N0     O23       5.47125      .   S
    Zr17   O24       2.18737      .   S
    N0     O24       5.46492  1_556   S
    Zr17   O25       2.35930      .   S
    N2     O25       4.64207  1_655   S
    Zr17   O26       2.16544      .   S
    N1     O26       5.45803      .   S
    Zr17   O27       2.18015  1_565   S
    N1     O27       5.47237      .   S
