# CIF file generated by openbabel 2.4.90, see http://openbabel.sf.net
data_I
_chemical_name_common 'VESTA_phase_1'
_cell_length_a 12.754
_cell_length_b 12.737
_cell_length_c 25.661
_cell_angle_alpha 90.004
_cell_angle_beta 90.026
_cell_angle_gamma 89.9
_space_group_name_H-M_alt 'P 1'
_space_group_name_Hall 'P 1'
loop_
    _symmetry_equiv_pos_as_xyz
    x,y,z
loop_
    _atom_site_label
    _atom_site_type_symbol
    _atom_site_fract_x
    _atom_site_fract_y
    _atom_site_fract_z
    _atom_site_occupancy
    Zn0     Zn   0.03910   0.93287   0.43804   1.000
    Zn1     Zn   0.46213   0.56831   0.43830   1.000
    Zn2     Zn   0.56874   0.03679   0.43799   1.000
    Zn3     Zn   0.93261   0.46237   0.43817   1.000
    Zn4     Zn   0.46224   0.93301   0.06182   1.000
    Zn5     Zn   0.03855   0.56829   0.06199   1.000
    Zn6     Zn   0.93265   0.03902   0.06188   1.000
    Zn7     Zn   0.56860   0.46224   0.06170   1.000
    Zn8     Zn   0.96086   0.06715   0.56193   1.000
    Zn9     Zn   0.53787   0.43172   0.56168   1.000
    Zn10    Zn   0.43124   0.96324   0.56199   1.000
    Zn11    Zn   0.06738   0.53765   0.56179   1.000
    Zn12    Zn   0.53774   0.06698   0.93817   1.000
    Zn13    Zn   0.96144   0.43168   0.93799   1.000
    Zn14    Zn   0.06735   0.96093   0.93808   1.000
    Zn15    Zn   0.43140   0.53776   0.93820   1.000
    H16     H    0.27953   0.94656   0.46568   1.000
    H17     H    0.05793   0.92991   0.23195   1.000
    H18     H    0.18514   0.93423   0.15803   1.000
    H19     H    0.26400   0.02166   0.64937   1.000
    H20     H    0.12559   0.04607   0.64895   1.000
    H21     H    0.22087   0.55714   0.46570   1.000
    H22     H    0.44139   0.57137   0.23315   1.000
    H23     H    0.31400   0.56769   0.15922   1.000
    H24     H    0.23473   0.47860   0.64910   1.000
    H25     H    0.37298   0.45306   0.64874   1.000
    H26     H    0.55950   0.27861   0.46562   1.000
    H27     H    0.57202   0.05694   0.23198   1.000
    H28     H    0.56773   0.18441   0.15800   1.000
    H29     H    0.47948   0.26527   0.64879   1.000
    H30     H    0.45294   0.12712   0.64840   1.000
    H31     H    0.94169   0.22087   0.46572   1.000
    H32     H    0.92773   0.44351   0.23339   1.000
    H33     H    0.93123   0.31749   0.15885   1.000
    H34     H    0.02018   0.23422   0.64924   1.000
    H35     H    0.04595   0.37246   0.64876   1.000
    H36     H    0.22088   0.94296   0.03428   1.000
    H37     H    0.44165   0.92857   0.26684   1.000
    H38     H    0.31440   0.93142   0.34076   1.000
    H39     H    0.23450   0.01970   0.85070   1.000
    H40     H    0.37255   0.04582   0.85114   1.000
    H41     H    0.27899   0.55723   0.03410   1.000
    H42     H    0.05773   0.57186   0.26803   1.000
    H43     H    0.18507   0.56817   0.34196   1.000
    H44     H    0.26412   0.47907   0.85083   1.000
    H45     H    0.12612   0.45262   0.85131   1.000
    H46     H    0.94290   0.27910   0.03378   1.000
    H47     H    0.92759   0.05867   0.26644   1.000
    H48     H    0.93100   0.18466   0.34097   1.000
    H49     H    0.02010   0.26418   0.85024   1.000
    H50     H    0.04556   0.12576   0.85085   1.000
    H51     H    0.55933   0.22088   0.03398   1.000
    H52     H    0.57409   0.44109   0.26687   1.000
    H53     H    0.57135   0.31366   0.34081   1.000
    H54     H    0.47893   0.23448   0.85080   1.000
    H55     H    0.45264   0.37276   0.85125   1.000
    H56     H    0.72042   0.05338   0.53430   1.000
    H57     H    0.94201   0.07019   0.76802   1.000
    H58     H    0.81481   0.06587   0.84194   1.000
    H59     H    0.73596   0.97840   0.35061   1.000
    H60     H    0.87437   0.95400   0.35102   1.000
    H61     H    0.77913   0.44283   0.53426   1.000
    H62     H    0.55858   0.42873   0.76685   1.000
    H63     H    0.68597   0.43241   0.84078   1.000
    H64     H    0.76523   0.52140   0.35087   1.000
    H65     H    0.62698   0.54695   0.35124   1.000
    H66     H    0.44050   0.72143   0.53437   1.000
    H67     H    0.42789   0.94305   0.76800   1.000
    H68     H    0.43212   0.81558   0.84190   1.000
    H69     H    0.52050   0.73475   0.35119   1.000
    H70     H    0.54703   0.87290   0.35157   1.000
    H71     H    0.05838   0.77911   0.53421   1.000
    H72     H    0.07227   0.55650   0.76656   1.000
    H73     H    0.06876   0.68251   0.84110   1.000
    H74     H    0.97974   0.76581   0.35071   1.000
    H75     H    0.95397   0.62757   0.35119   1.000
    H76     H    0.77911   0.05685   0.96566   1.000
    H77     H    0.55829   0.07139   0.73314   1.000
    H78     H    0.68552   0.06855   0.65921   1.000
    H79     H    0.76555   0.97997   0.14923   1.000
    H80     H    0.62749   0.95389   0.14879   1.000
    H81     H    0.72107   0.44237   0.96592   1.000
    H82     H    0.94225   0.42797   0.73190   1.000
    H83     H    0.81491   0.43166   0.65804   1.000
    H84     H    0.73591   0.52075   0.14920   1.000
    H85     H    0.87391   0.54726   0.14871   1.000
    H86     H    0.05709   0.72085   0.96617   1.000
    H87     H    0.07229   0.94134   0.73352   1.000
    H88     H    0.06889   0.81536   0.65898   1.000
    H89     H    0.97977   0.73573   0.14970   1.000
    H90     H    0.95433   0.87415   0.14909   1.000
    H91     H    0.44055   0.77910   0.96602   1.000
    H92     H    0.42586   0.55890   0.73310   1.000
    H93     H    0.42863   0.68633   0.65910   1.000
    H94     H    0.52103   0.76547   0.14919   1.000
    H95     H    0.54737   0.62720   0.14873   1.000
    C96     C    0.18964   0.00323   0.57898   1.000
    C97     C    0.23381   0.96581   0.50004   1.000
    C98     C    0.17822   0.93068   0.29092   1.000
    C99     C    0.14199   0.93045   0.23928   1.000
    C100    C    0.21292   0.93257   0.19814   1.000
    C101    C    0.10137   0.92943   0.33492   1.000
    C102    C    0.30941   0.49685   0.57884   1.000
    C103    C    0.26614   0.53672   0.50007   1.000
    C104    C    0.32115   0.56969   0.29210   1.000
    C105    C    0.35732   0.57060   0.24049   1.000
    C106    C    0.28630   0.56888   0.19933   1.000
    C107    C    0.39762   0.57067   0.33630   1.000
    C108    C    0.49774   0.19037   0.57856   1.000
    C109    C    0.53857   0.23336   0.49989   1.000
    C110    C    0.57169   0.17730   0.29098   1.000
    C111    C    0.57169   0.14112   0.23933   1.000
    C112    C    0.56958   0.21219   0.19818   1.000
    C113    C    0.57270   0.10026   0.33499   1.000
    C114    C    0.00191   0.30912   0.57890   1.000
    C115    C    0.96217   0.26606   0.50009   1.000
    C116    C    0.92951   0.32194   0.29179   1.000
    C117    C    0.92853   0.35920   0.24033   1.000
    C118    C    0.93017   0.28893   0.19883   1.000
    C119    C    0.92902   0.39790   0.33623   1.000
    C120    C    0.30917   0.00244   0.92107   1.000
    C121    C    0.26606   0.96317   0.99990   1.000
    C122    C    0.32131   0.93152   0.20785   1.000
    C123    C    0.35757   0.92968   0.25948   1.000
    C124    C    0.28662   0.93099   0.30065   1.000
    C125    C    0.39774   0.93092   0.16368   1.000
    C126    C    0.18979   0.49675   0.92119   1.000
    C127    C    0.23349   0.53671   0.99988   1.000
    C128    C    0.17792   0.56971   0.20906   1.000
    C129    C    0.14178   0.57090   0.26069   1.000
    C130    C    0.21277   0.56912   0.30185   1.000
    C131    C    0.10100   0.57078   0.16505   1.000
    C132    C    0.00184   0.18968   0.92063   1.000
    C133    C    0.96294   0.23356   0.99945   1.000
    C134    C    0.92963   0.18023   0.20804   1.000
    C135    C    0.92841   0.14299   0.25950   1.000
    C136    C    0.93011   0.21324   0.30100   1.000
    C137    C    0.92909   0.10423   0.16363   1.000
    C138    C    0.49716   0.30929   0.92107   1.000
    C139    C    0.53830   0.26614   0.99970   1.000
    C140    C    0.57080   0.32073   0.20788   1.000
    C141    C    0.57286   0.35692   0.25953   1.000
    C142    C    0.57160   0.28584   0.30070   1.000
    C143    C    0.57124   0.39739   0.16372   1.000
    C144    C    0.81033   0.99681   0.42100   1.000
    C145    C    0.76615   0.03415   0.49995   1.000
    C146    C    0.82171   0.06935   0.70905   1.000
    C147    C    0.85795   0.06962   0.76069   1.000
    C148    C    0.78703   0.06750   0.80183   1.000
    C149    C    0.89857   0.07060   0.66500   1.000
    C150    C    0.69057   0.50315   0.42110   1.000
    C151    C    0.73385   0.46326   0.49990   1.000
    C152    C    0.67883   0.43027   0.70787   1.000
    C153    C    0.64265   0.42946   0.75950   1.000
    C154    C    0.71367   0.43116   0.80060   1.000
    C155    C    0.60236   0.42933   0.66369   1.000
    C156    C    0.50223   0.80966   0.42143   1.000
    C157    C    0.46142   0.76667   0.50010   1.000
    C158    C    0.42826   0.82269   0.70900   1.000
    C159    C    0.42822   0.85887   0.76065   1.000
    C160    C    0.43031   0.78779   0.80180   1.000
    C161    C    0.42726   0.89974   0.66498   1.000
    C162    C    0.99804   0.69090   0.42104   1.000
    C163    C    0.03786   0.73394   0.49980   1.000
    C164    C    0.07041   0.67807   0.70816   1.000
    C165    C    0.07145   0.64081   0.75962   1.000
    C166    C    0.06979   0.71107   0.80110   1.000
    C167    C    0.07092   0.60211   0.66373   1.000
    C168    C    0.69088   0.99723   0.07886   1.000
    C169    C    0.73394   0.03664   0.00000   1.000
    C170    C    0.67863   0.06851   0.79212   1.000
    C171    C    0.64236   0.07031   0.74049   1.000
    C172    C    0.71332   0.06901   0.69930   1.000
    C173    C    0.60222   0.06910   0.83630   1.000
    C174    C    0.81025   0.50304   0.07884   1.000
    C175    C    0.76656   0.46298   0.00000   1.000
    C176    C    0.82205   0.43027   0.79093   1.000
    C177    C    0.85819   0.42899   0.73930   1.000
    C178    C    0.78720   0.43079   0.69815   1.000
    C179    C    0.89898   0.42922   0.83495   1.000
    C180    C    0.99806   0.81024   0.07930   1.000
    C181    C    0.03703   0.76638   0.00000   1.000
    C182    C    0.07033   0.81978   0.79190   1.000
    C183    C    0.07149   0.85703   0.74040   1.000
    C184    C    0.06982   0.78678   0.69895   1.000
    C185    C    0.07087   0.89577   0.83633   1.000
    C186    C    0.50282   0.69068   0.07891   1.000
    C187    C    0.46162   0.73383   0.00000   1.000
    C188    C    0.42911   0.67926   0.79209   1.000
    C189    C    0.42708   0.64307   0.74044   1.000
    C190    C    0.42835   0.71415   0.69927   1.000
    C191    C    0.42867   0.60259   0.83625   1.000
    N192    N    0.10039   0.00038   0.55028   1.000
    N193    N    0.13080   0.97736   0.49914   1.000
    N194    N    0.27486   0.98064   0.54828   1.000
    N195    N    0.19348   0.02474   0.63010   1.000
    N196    N    0.39889   0.49960   0.55036   1.000
    N197    N    0.36909   0.52425   0.49932   1.000
    N198    N    0.22456   0.52105   0.54814   1.000
    N199    N    0.30505   0.47369   0.62979   1.000
    N200    N    0.50056   0.10079   0.55006   1.000
    N201    N    0.52572   0.13039   0.49906   1.000
    N202    N    0.52257   0.27507   0.54792   1.000
    N203    N    0.47370   0.19499   0.62938   1.000
    N204    N    0.99979   0.39871   0.55036   1.000
    N205    N    0.97527   0.36901   0.49930   1.000
    N206    N    0.97730   0.22436   0.54820   1.000
    N207    N    0.02488   0.30459   0.62987   1.000
    N208    N    0.39863   0.00019   0.94960   1.000
    N209    N    0.36892   0.97598   0.00071   1.000
    N210    N    0.22444   0.97821   0.95176   1.000
    N211    N    0.30468   0.02537   0.87009   1.000
    N212    N    0.10052   0.49924   0.94985   1.000
    N213    N    0.13065   0.52393   0.00085   1.000
    N214    N    0.27474   0.52123   0.95173   1.000
    N215    N    0.19400   0.47344   0.87026   1.000
    N216    N    0.99964   0.10030   0.94931   1.000
    N217    N    0.97566   0.13055   0.00037   1.000
    N218    N    0.97782   0.27481   0.95124   1.000
    N219    N    0.02424   0.19375   0.86961   1.000
    N220    N    0.49989   0.39890   0.94957   1.000
    N221    N    0.52536   0.36916   0.00054   1.000
    N222    N    0.52221   0.22443   0.95166   1.000
    N223    N    0.47305   0.30472   0.87023   1.000
    N224    N    0.89958   0.99963   0.44970   1.000
    N225    N    0.86916   0.02261   0.50084   1.000
    N226    N    0.72511   0.01937   0.45171   1.000
    N227    N    0.80649   0.97537   0.36987   1.000
    N228    N    0.60110   0.50042   0.44963   1.000
    N229    N    0.63091   0.47575   0.50067   1.000
    N230    N    0.77543   0.47893   0.45183   1.000
    N231    N    0.69492   0.52630   0.37019   1.000
    N232    N    0.49940   0.89925   0.44992   1.000
    N233    N    0.47426   0.86964   0.50092   1.000
    N234    N    0.47742   0.72496   0.45207   1.000
    N235    N    0.52626   0.80504   0.37060   1.000
    N236    N    0.00000   0.60130   0.44957   1.000
    N237    N    0.02477   0.63099   0.50063   1.000
    N238    N    0.02268   0.77565   0.45174   1.000
    N239    N    0.97501   0.69545   0.37008   1.000
    N240    N    0.60140   0.99962   0.05033   1.000
    N241    N    0.63107   0.02390   0.99925   1.000
    N242    N    0.77559   0.02148   0.04817   1.000
    N243    N    0.69541   0.97404   0.12981   1.000
    N244    N    0.89951   0.50061   0.05018   1.000
    N245    N    0.86939   0.47584   0.99918   1.000
    N246    N    0.72531   0.47848   0.04831   1.000
    N247    N    0.80605   0.52634   0.12978   1.000
    N248    N    0.00000   0.89963   0.05065   1.000
    N249    N    0.02434   0.86939   0.99959   1.000
    N250    N    0.02210   0.72511   0.04870   1.000
    N251    N    0.97554   0.80614   0.13032   1.000
    N252    N    0.50015   0.60108   0.05040   1.000
    N253    N    0.47464   0.63083   0.99944   1.000
    N254    N    0.47770   0.77553   0.04834   1.000
    N255    N    0.52692   0.69524   0.12976   1.000
    O256    O    0.13832   0.95165   0.38063   1.000
    O257    O    0.00635   0.90612   0.32681   1.000
    O258    O    0.36057   0.54728   0.38181   1.000
    O259    O    0.49260   0.59508   0.32870   1.000
    O260    O    0.55081   0.13735   0.38073   1.000
    O261    O    0.59547   0.00491   0.32680   1.000
    O262    O    0.95131   0.36003   0.38174   1.000
    O263    O    0.90628   0.49352   0.32870   1.000
    O264    O    0.36056   0.95463   0.11820   1.000
    O265    O    0.49282   0.90653   0.17125   1.000
    O266    O    0.13769   0.54715   0.11947   1.000
    O267    O    0.00618   0.59538   0.17306   1.000
    O268    O    0.95112   0.14196   0.11807   1.000
    O269    O    0.90636   0.00871   0.17115   1.000
    O270    O    0.54757   0.36037   0.11821   1.000
    O271    O    0.59541   0.49254   0.17135   1.000
    O272    O    0.86163   0.04839   0.61934   1.000
    O273    O    0.99358   0.09394   0.67310   1.000
    O274    O    0.63943   0.45274   0.61818   1.000
    O275    O    0.50738   0.40495   0.67129   1.000
    O276    O    0.44918   0.86267   0.61925   1.000
    O277    O    0.40451   0.99510   0.67313   1.000
    O278    O    0.04869   0.63998   0.61821   1.000
    O279    O    0.09370   0.50651   0.67120   1.000
    O280    O    0.63941   0.04542   0.88178   1.000
    O281    O    0.50713   0.09348   0.82874   1.000
    O282    O    0.86230   0.45288   0.88053   1.000
    O283    O    0.99380   0.40463   0.82694   1.000
    O284    O    0.04882   0.85804   0.88188   1.000
    O285    O    0.09360   0.99129   0.82882   1.000
    O286    O    0.45226   0.63964   0.88170   1.000
    O287    O    0.40456   0.50743   0.82863   1.000
loop_
    _geom_bond_atom_site_label_1
    _geom_bond_atom_site_label_2
    _geom_bond_distance
    _geom_bond_site_symmetry_2
    _ccdc_geom_bond_type
    C181   N250      1.36930      .   S
    C181   H86       1.07470  1_554   S
    C181   N249      1.32171  1_554   S
    C175   N246      1.36119      .   S
    C175   H81       1.08184  1_554   S
    C175   N245      1.32213  1_554   S
    C187   N254      1.36485      .   S
    C187   H91       1.07899  1_554   S
    C187   N253      1.32227  1_554   S
    C169   N242      1.35887      .   S
    C169   H76       1.08425  1_554   S
    C169   N241      1.32237  1_554   S
    N217   Zn6       2.03834      .   S
    N217   N216      1.39951  1_554   S
    N217   C133      1.32189  1_554   S
    N221   Zn7       2.04301      .   S
    N221   N220      1.39963  1_554   S
    N221   C139      1.32238  1_554   S
    N209   Zn4       2.04237      .   S
    N209   N208      1.39987  1_564   S
    N209   C121      1.32240  1_554   S
    N213   Zn5       2.03951      .   S
    N213   N212      1.39969  1_554   S
    N213   C127      1.32222  1_554   S
    H46    C133      1.08513  1_554   S
    H51    C139      1.08508  1_554   S
    H41    C127      1.08451  1_554   S
    H36    C121      1.08516  1_554   S
    N242   Zn6       2.04617      .   S
    N242   C168      1.37299  1_545   S
    N246   Zn7       2.03902      .   S
    N246   C174      1.37319      .   S
    N254   Zn4       2.04459      .   S
    N254   C186      1.37285      .   S
    N250   Zn5       2.03681      .   S
    N250   C180      1.37295  1_455   S
    N244   Zn5       1.99617  1_655   S
    N244   C174      1.35586      .   S
    N244   N245      1.39990  1_554   S
    N240   Zn4       1.99068      .   S
    N240   C168      1.35588      .   S
    N240   N241      1.39926  1_564   S
    N252   Zn7       1.99204      .   S
    N252   C186      1.35598      .   S
    N252   N253      1.39954  1_554   S
    N248   Zn6       1.99190  1_465   S
    N248   C180      1.35566  1_455   S
    N248   N249      1.40050  1_554   S
    Zn7    O270      1.96471      .   S
    Zn4    O264      1.96242      .   S
    Zn6    O268      1.96321      .   S
    Zn5    O266      1.96061      .   S
    C174   N247      1.34149      .   S
    C168   N243      1.34159      .   S
    C186   N255      1.34172      .   S
    C180   N251      1.34151      .   S
    O268   C137      1.29520      .   S
    O264   C125      1.29506      .   S
    O270   C143      1.29518      .   S
    O266   C131      1.29519      .   S
    N255   H95       1.02717      .   S
    N255   H94       1.02677      .   S
    N247   H85       1.02787      .   S
    N247   H84       1.02673      .   S
    N243   H80       1.02699      .   S
    N243   H79       1.02660      .   S
    N251   H90       1.02703      .   S
    N251   H89       1.02688      .   S
    H28    C112      1.09034      .   S
    H18    C100      1.08856      .   S
    H33    C118      1.08862      .   S
    H23    C106      1.08847      .   S
    C137   O269      1.26599      .   S
    C137   C134      1.49525      .   S
    C125   O265      1.26616      .   S
    C125   C122      1.49531      .   S
    C143   O271      1.26620      .   S
    C143   C140      1.49595      .   S
    C131   O267      1.26564      .   S
    C131   C128      1.49568      .   S
    C100   C122      1.40464      .   S
    C100   C99       1.39085      .   S
    C112   C140      1.40471      .   S
    C112   C111      1.39118      .   S
    C118   C134      1.40460      .   S
    C118   C117      1.39116      .   S
    C106   C128      1.40471      .   S
    C106   C105      1.39135      .   S
    C122   C123      1.40327      .   S
    C140   C141      1.40348      .   S
    C134   C135      1.40329      .   S
    C128   C129      1.40305      .   S
    H17    C99       1.08851      .   S
    H27    C111      1.08860      .   S
    H22    C105      1.08873      .   S
    H32    C117      1.08863      .   S
    C99    C98       1.40319      .   S
    C111   C110      1.40322      .   S
    C117   C116      1.40327      .   S
    C105   C104      1.40269      .   S
    C123   H37       1.08877      .   S
    C123   C124      1.39149      .   S
    C135   H47       1.08862      .   S
    C135   C136      1.39108      .   S
    C141   H52       1.08871      .   S
    C141   C142      1.39143      .   S
    C129   H42       1.08859      .   S
    C129   C130      1.39104      .   S
    C98    C124      1.40472      .   S
    C98    C101      1.49566      .   S
    C110   C142      1.40478      .   S
    C110   C113      1.49621      .   S
    C116   C136      1.40464      .   S
    C116   C119      1.49543      .   S
    C104   C130      1.40479      .   S
    C104   C107      1.49567      .   S
    C124   H38       1.08843      .   S
    C142   H53       1.08853      .   S
    C136   H48       1.08839      .   S
    C130   H43       1.08844      .   S
    O261   C113      1.26582      .   S
    O257   C101      1.26529      .   S
    O259   C107      1.26629      .   S
    O263   C119      1.26630      .   S
    C101   O256      1.29536      .   S
    C113   O260      1.29558      .   S
    C119   O262      1.29481      .   S
    C107   O258      1.29498      .   S
    H59    N227      1.02682      .   S
    H74    N239      1.02669      .   S
    H64    N231      1.02668      .   S
    H60    N227      1.02818      .   S
    H75    N239      1.02715      .   S
    H69    N235      1.02719      .   S
    H65    N231      1.02726      .   S
    H70    N235      1.02801      .   S
    N227   C144      1.34104      .   S
    N239   C162      1.34137      .   S
    N231   C150      1.34048      .   S
    N235   C156      1.34128      .   S
    O256   Zn0       1.95745      .   S
    O260   Zn2       1.96232      .   S
    O262   Zn3       1.96257      .   S
    O258   Zn1       1.96222      .   S
    C144   N224      1.35599      .   S
    C144   N226      1.37281  1_565   S
    C162   N236      1.35607  1_655   S
    C162   N238      1.37312  1_655   S
    C150   N228      1.35655      .   S
    C150   N230      1.37351      .   S
    C156   N232      1.35562      .   S
    C156   N234      1.37245      .   S
    Zn2    N232      1.98761  1_545   S
    Zn2    N226      2.03671      .   S
    Zn2    N201      2.04368      .   S
    Zn0    N224      1.99364  1_455   S
    Zn0    N238      2.04425      .   S
    Zn0    N193      2.03657      .   S
    Zn3    N236      1.99021  1_655   S
    Zn3    N230      2.04575      .   S
    Zn3    N205      2.04154      .   S
    Zn1    N228      1.99197      .   S
    Zn1    N234      2.03594      .   S
    Zn1    N197      2.04426      .   S
    N236   N237      1.39981      .   S
    N228   N229      1.39926      .   S
    N224   N225      1.39937  1_565   S
    N232   N233      1.39950      .   S
    N226   C145      1.35703      .   S
    N238   C163      1.35656      .   S
    N230   C151      1.35779      .   S
    N234   C157      1.35747      .   S
    H26    C109      1.08514      .   S
    H16    C97       1.08511      .   S
    H21    C103      1.08533      .   S
    H31    C115      1.08517      .   S
    N201   C109      1.32217      .   S
    N201   N200      1.39954      .   S
    N193   C97       1.32203      .   S
    N193   N192      1.39947  1_565   S
    N205   C115      1.32235      .   S
    N205   N204      1.39915      .   S
    N197   C103      1.32238      .   S
    N197   N196      1.39918      .   S
    C163   N237      1.32235      .   S
    C163   H71       1.08604      .   S
    C109   N202      1.35746      .   S
    C151   N229      1.32238      .   S
    C151   H61       1.08523      .   S
    C145   N225      1.32203      .   S
    C145   H56       1.08485      .   S
    C97    N194      1.35713      .   S
    C103   N198      1.35785      .   S
    C115   N206      1.35756      .   S
    C157   N233      1.32217      .   S
    C157   H66       1.08509      .   S
    N237   Zn11      2.04184      .   S
    N229   Zn9       2.04401      .   S
    N225   Zn8       2.03661      .   S
    N233   Zn10      2.04363      .   S
    N202   Zn9       2.03588      .   S
    N202   C108      1.37252      .   S
    N198   Zn11      2.04576      .   S
    N198   C102      1.37292      .   S
    N206   Zn8       2.04424      .   S
    N206   C114      1.37311  1_655   S
    N194   Zn10      2.03682      .   S
    N194   C96       1.37272  1_565   S
    N200   Zn10      1.98755  1_545   S
    N200   C108      1.35571      .   S
    N192   Zn8       1.99362  1_455   S
    N192   C96       1.35602      .   S
    N204   Zn11      1.99142  1_655   S
    N204   C114      1.35618  1_655   S
    N196   Zn9       1.99193      .   S
    N196   C102      1.35596      .   S
    Zn9    O274      1.96238      .   S
    Zn11   O278      1.96238      .   S
    Zn8    O272      1.95755      .   S
    Zn10   O276      1.96246      .   S
    C108   N203      1.34105      .   S
    C102   N199      1.34153      .   S
    C114   N207      1.34143      .   S
    C96    N195      1.34097      .   S
    O274   C155      1.29508      .   S
    O278   C167      1.29491      .   S
    O276   C161      1.29535      .   S
    O272   C149      1.29412      .   S
    N203   H30       1.02790      .   S
    N203   H29       1.02715      .   S
    N199   H25       1.02716      .   S
    N199   H24       1.02664      .   S
    N207   H35       1.02724      .   S
    N207   H34       1.02671      .   S
    N195   H20       1.02812      .   S
    N195   H19       1.02685      .   S
    H83    C178      1.08844      .   S
    H88    C184      1.08842      .   S
    H93    C190      1.08998      .   S
    H78    C172      1.08796      .   S
    C155   O275      1.26630      .   S
    C155   C152      1.49522      .   S
    C167   O279      1.26603      .   S
    C167   C164      1.49526      .   S
    C161   O277      1.26564      .   S
    C161   C158      1.49648      .   S
    C149   O273      1.26521      .   S
    C149   C146      1.49668      .   S
    C178   C152      1.40467      .   S
    C178   C177      1.39081      .   S
    C184   C164      1.40462      .   S
    C184   C183      1.39010      .   S
    C190   C158      1.40481      .   S
    C190   C189      1.39149      .   S
    C172   C146      1.40483      .   S
    C172   C171      1.39184      .   S
    C152   C153      1.40318      .   S
    C164   C165      1.40329      .   S
    C158   C159      1.40319      .   S
    C146   C147      1.40322      .   S
    H82    C177      1.08888      .   S
    H92    C189      1.08869      .   S
    H77    C171      1.08875      .   S
    H87    C183      1.08838      .   S
    C177   C176      1.40307      .   S
    C183   C182      1.40427      .   S
    C189   C188      1.40345      .   S
    C171   C170      1.40330      .   S
    C153   H62       1.08878      .   S
    C153   C154      1.39016      .   S
    C165   H72       1.08865      .   S
    C165   C166      1.39072      .   S
    C159   H67       1.08859      .   S
    C159   C160      1.39120      .   S
    C147   H57       1.08853      .   S
    C147   C148      1.39079      .   S
    C176   C154      1.40444      .   S
    C176   C179      1.49595      .   S
    C182   C166      1.40458      .   S
    C182   C185      1.49555      .   S
    C188   C160      1.40475      .   S
    C188   C191      1.49596      .   S
    C170   C148      1.40463      .   S
    C170   C173      1.49540      .   S
    C154   H63       1.09018      .   S
    C166   H73       1.08912      .   S
    C160   H68       1.08840      .   S
    C148   H58       1.08858      .   S
    O283   C179      1.26562      .   S
    O287   C191      1.26614      .   S
    O281   C173      1.26615      .   S
    O285   C185      1.26602      .   S
    C179   O282      1.29524      .   S
    C191   O286      1.29368      .   S
    C173   O280      1.29506      .   S
    C185   O284      1.29506      .   S
    H49    N219      1.02685      .   S
    H39    N211      1.02657      .   S
    H54    N223      1.02684      .   S
    H44    N215      1.02682      .   S
    H50    N219      1.02709      .   S
    H40    N211      1.02703      .   S
    H55    N223      1.02716      .   S
    H45    N215      1.02796      .   S
    N219   C132      1.34117      .   S
    N211   C120      1.34159      .   S
    N223   C138      1.34150      .   S
    N215   C126      1.34126      .   S
    O282   Zn13      1.96035      .   S
    O286   Zn15      1.96436      .   S
    O280   Zn12      1.96252      .   S
    O284   Zn14      1.96312      .   S
    C132   N216      1.35604  1_455   S
    C132   N218      1.37311  1_455   S
    C138   N220      1.35602      .   S
    C138   N222      1.37298      .   S
    C120   N208      1.35560      .   S
    C120   N210      1.37305  1_545   S
    C126   N212      1.35597      .   S
    C126   N214      1.37317      .   S
    Zn13   N212      1.99610  1_655   S
    Zn13   N218      2.03714      .   S
    Zn13   N245      2.03951      .   S
    Zn14   N216      1.99363  1_465   S
    Zn14   N210      2.04616      .   S
    Zn14   N249      2.03837      .   S
    Zn12   N208      1.99086      .   S
    Zn12   N222      2.04436      .   S
    Zn12   N241      2.04231      .   S
    Zn15   N220      1.99265      .   S
    Zn15   N214      2.03941      .   S
    Zn15   N253      2.04455      .   S
    N218   C133      1.35765      .   S
    N222   C139      1.35795      .   S
    N214   C127      1.35740      .   S
    N210   C121      1.35781      .   S
