# CIF file generated by openbabel 2.4.90, see http://openbabel.sf.net
data_I
_chemical_name_common ''
_cell_length_a 17.665
_cell_length_b 15.53
_cell_length_c 19.77
_cell_angle_alpha 90.028
_cell_angle_beta 89.996
_cell_angle_gamma 90.022
_space_group_name_H-M_alt 'P 1'
_space_group_name_Hall 'P 1'
loop_
    _symmetry_equiv_pos_as_xyz
    x,y,z
loop_
    _atom_site_label
    _atom_site_type_symbol
    _atom_site_fract_x
    _atom_site_fract_y
    _atom_site_fract_z
    _atom_site_occupancy
    N0      N    0.65441   0.07287   0.00776   1.000
    N1      N    0.24878   0.71085   0.22937   1.000
    N2      N    0.74876   0.71088   0.22939   1.000
    N3      N    0.75118   0.21085   0.27080   1.000
    N4      N    0.15446   0.07288   0.00773   1.000
    N5      N    0.34600   0.57270   0.49273   1.000
    N6      N    0.84596   0.57273   0.49273   1.000
    N7      N    0.50137   0.28908   0.72936   1.000
    N8      N    0.00136   0.28907   0.72937   1.000
    N9      N    0.59557   0.92715   0.50766   1.000
    N10     N    0.09596   0.92725   0.50733   1.000
    N11     N    0.99903   0.78925   0.77065   1.000
    N12     N    0.49903   0.78924   0.77066   1.000
    N13     N    0.40410   0.42765   0.99218   1.000
    N14     N    0.90407   0.42764   0.99233   1.000
    N15     N    0.25113   0.21095   0.27070   1.000
    Zr16    Zr   0.21637   0.03725   0.74161   1.000
    O17     O    0.29579   0.11303   0.73514   1.000
    O18     O    0.19495   0.05218   0.81853   1.000
    O19     O    0.17473   0.00739   0.67609   1.000
    O20     O    0.29491   0.96166   0.74866   1.000
    Zr21    Zr   0.53368   0.96273   0.24162   1.000
    O22     O    0.55509   0.94781   0.31852   1.000
    O23     O    0.57542   0.99261   0.17622   1.000
    O24     O    0.45517   0.03837   0.24870   1.000
    O25     O    0.45428   0.88693   0.23514   1.000
    Zr26    Zr   0.78383   0.53736   0.75851   1.000
    O27     O    0.70536   0.46168   0.75141   1.000
    O28     O    0.80527   0.55227   0.68168   1.000
    O29     O    0.82544   0.50755   0.82390   1.000
    O30     O    0.70445   0.61315   0.76497   1.000
    Zr31    Zr   0.46625   0.46272   0.25850   1.000
    O32     O    0.42465   0.49257   0.32400   1.000
    O33     O    0.44480   0.44788   0.18153   1.000
    O34     O    0.54474   0.53837   0.25142   1.000
    O35     O    0.54567   0.38695   0.26500   1.000
    Zr36    Zr   0.71630   0.03725   0.74162   1.000
    O37     O    0.79486   0.96166   0.74867   1.000
    O38     O    0.79574   0.11303   0.73514   1.000
    O39     O    0.67456   0.00738   0.67620   1.000
    O40     O    0.69489   0.05218   0.81855   1.000
    Zr41    Zr   0.28385   0.53736   0.75851   1.000
    O42     O    0.30529   0.55226   0.68168   1.000
    O43     O    0.32546   0.50755   0.82386   1.000
    O44     O    0.20537   0.46168   0.75141   1.000
    O45     O    0.20446   0.61315   0.76497   1.000
    Zr46    Zr   0.03379   0.96270   0.24153   1.000
    O47     O    0.07552   0.99260   0.17616   1.000
    O48     O    0.95434   0.88693   0.23508   1.000
    O49     O    0.95527   0.03834   0.24866   1.000
    O50     O    0.05524   0.94777   0.31837   1.000
    Zr51    Zr   0.96620   0.46274   0.25851   1.000
    O52     O    0.92460   0.49259   0.32401   1.000
    O53     O    0.94476   0.44789   0.18158   1.000
    O54     O    0.04562   0.38699   0.26498   1.000
    O55     O    0.04471   0.53837   0.25142   1.000
loop_
    _geom_bond_atom_site_label_1
    _geom_bond_atom_site_label_2
    _geom_bond_distance
    _geom_bond_site_symmetry_2
    _ccdc_geom_bond_type
    Zr16   O17       1.83537      .   S
    N7     O17       4.54625      .   S
    Zr16   O18       1.58408      .   S
    N4     O18       3.82161  1_554   S
    Zr16   O19       1.55994      .   S
    N10    O19       3.82256  1_565   S
    Zr16   O20       1.82318  1_545   S
    N12    O20       4.51327      .   S
    Zr21   O22       1.58383      .   S
    N9     O22       3.82069      .   S
    Zr21   O23       1.55910      .   S
    N0     O23       3.82037  1_545   S
    Zr21   O24       1.82325  1_565   S
    N15    O24       4.51330      .   S
    Zr21   O25       1.83507      .   S
    N1     O25       4.54546      .   S
    Zr26   O27       1.82238      .   S
    N7     O27       4.51134      .   S
    Zr26   O28       1.58253      .   S
    N6     O28       3.81733      .   S
    Zr26   O29       1.55783      .   S
    N14    O29       3.81627      .   S
    Zr26   O30       1.83546      .   S
    N12    O30       4.54592      .   S
    Zr31   O32       1.55938      .   S
    N5     O32       3.82131      .   S
    Zr31   O33       1.58485      .   S
    N13    O33       3.82472  1_556   S
    Zr31   O34       1.82230      .   S
    N2     O34       4.51108      .   S
    Zr31   O35       1.83599      .   S
    N3     O35       4.54756      .   S
    Zr36   O37       1.82341  1_545   S
    N11    O37       4.51383      .   S
    Zr36   O38       1.83560      .   S
    N8     O38       4.54683  1_455   S
    Zr36   O39       1.55918      .   S
    N9     O39       3.82067  1_565   S
    Zr36   O40       1.58416      .   S
    N0     O40       3.82173  1_554   S
    Zr41   O42       1.58253      .   S
    N5     O42       3.81739      .   S
    Zr41   O43       1.55722      .   S
    N13    O43       3.81431      .   S
    Zr41   O44       1.82248      .   S
    N8     O44       4.51163      .   S
    Zr41   O45       1.83559      .   S
    N11    O45       4.54624  1_655   S
    Zr46   O47       1.55867      .   S
    N4     O47       3.81954  1_545   S
    Zr46   O48       1.83555  1_455   S
    N2     O48       4.54627      .   S
    Zr46   O49       1.82331  1_465   S
    N3     O49       4.51361      .   S
    Zr46   O50       1.58282      .   S
    N10    O50       3.81797      .   S
    Zr51   O52       1.55933      .   S
    N6     O52       3.82124      .   S
    Zr51   O53       1.58419      .   S
    N14    O53       3.82260  1_556   S
    Zr51   O54       1.83576  1_655   S
    N15    O54       4.54684      .   S
    Zr51   O55       1.82251  1_655   S
    N1     O55       4.51158      .   S
