# CIF file generated by openbabel 2.4.90, see http://openbabel.sf.net
data_I
_chemical_name_common ''
_cell_length_a 17.665
_cell_length_b 15.53
_cell_length_c 19.77
_cell_angle_alpha 90.028
_cell_angle_beta 89.996
_cell_angle_gamma 90.022
_space_group_name_H-M_alt 'P 1'
_space_group_name_Hall 'P 1'
loop_
    _symmetry_equiv_pos_as_xyz
    x,y,z
loop_
    _atom_site_label
    _atom_site_type_symbol
    _atom_site_fract_x
    _atom_site_fract_y
    _atom_site_fract_z
    _atom_site_occupancy
    Zr0     Zr   0.21637   0.03725   0.74161   1.000
    Zr1     Zr   0.71630   0.03725   0.74162   1.000
    Zr2     Zr   0.03379   0.96270   0.24153   1.000
    Zr3     Zr   0.53368   0.96273   0.24162   1.000
    Zr4     Zr   0.28385   0.53736   0.75851   1.000
    Zr5     Zr   0.78383   0.53736   0.75851   1.000
    Zr6     Zr   0.46625   0.46272   0.25850   1.000
    Zr7     Zr   0.96620   0.46274   0.25851   1.000
    N8      N    0.65441   0.07287   0.00776   1.000
    O9      O    0.67348   0.06711   0.89548   1.000
    O10     O    0.61715   0.02250   0.11082   1.000
    N11     N    0.24878   0.71085   0.22937   1.000
    O12     O    0.37489   0.81114   0.22866   1.000
    O13     O    0.12322   0.61400   0.24434   1.000
    N14     N    0.74876   0.71088   0.22939   1.000
    O15     O    0.87489   0.81116   0.22863   1.000
    O16     O    0.62323   0.61401   0.24434   1.000
    N17     N    0.75118   0.21085   0.27080   1.000
    O18     O    0.62509   0.31117   0.27151   1.000
    O19     O    0.87675   0.11397   0.25579   1.000
    N20     N    0.15446   0.07288   0.00773   1.000
    O21     O    0.17352   0.06711   0.89545   1.000
    O22     O    0.11724   0.02249   0.11078   1.000
    N23     N    0.34600   0.57270   0.49273   1.000
    O24     O    0.32673   0.56716   0.60485   1.000
    O25     O    0.38304   0.52241   0.38951   1.000
    N26     N    0.84596   0.57273   0.49273   1.000
    O27     O    0.82671   0.56718   0.60485   1.000
    O28     O    0.88299   0.52244   0.38951   1.000
    N29     N    0.50137   0.28908   0.72936   1.000
    O30     O    0.62689   0.38601   0.74431   1.000
    O31     O    0.37521   0.18881   0.72866   1.000
    N32     N    0.00136   0.28907   0.72937   1.000
    O33     O    0.87519   0.18880   0.72867   1.000
    O34     O    0.12689   0.38600   0.74431   1.000
    N35     N    0.59557   0.92715   0.50766   1.000
    O36     O    0.57650   0.93290   0.39542   1.000
    O37     O    0.63283   0.97750   0.61078   1.000
    N38     N    0.09596   0.92725   0.50733   1.000
    O39     O    0.07669   0.93284   0.39520   1.000
    O40     O    0.13309   0.97754   0.61056   1.000
    N41     N    0.99903   0.78925   0.77065   1.000
    O42     O    0.12507   0.68894   0.77144   1.000
    O43     O    0.87342   0.88608   0.75572   1.000
    N44     N    0.49903   0.78924   0.77066   1.000
    O45     O    0.62507   0.68893   0.77144   1.000
    O46     O    0.37345   0.88607   0.75572   1.000
    N47     N    0.40410   0.42765   0.99218   1.000
    O48     O    0.42335   0.43304   0.10457   1.000
    O49     O    0.36708   0.47774   0.88921   1.000
    N50     N    0.90407   0.42764   0.99233   1.000
    O51     O    0.92331   0.43304   0.10464   1.000
    O52     O    0.86706   0.47774   0.88929   1.000
    N53     N    0.25113   0.21095   0.27070   1.000
    O54     O    0.12504   0.31124   0.27145   1.000
    O55     O    0.37666   0.11402   0.25577   1.000
loop_
    _geom_bond_atom_site_label_1
    _geom_bond_atom_site_label_2
    _geom_bond_distance
    _geom_bond_site_symmetry_2
    _ccdc_geom_bond_type
    N8     O9        2.24689  1_554   S
    Zr1    O9        3.16831      .   S
    N8     O10       2.27990      .   S
    Zr3    O10       3.11820  1_565   S
    N11    O12       2.71771      .   S
    Zr3    O12       3.67014      .   S
    N11    O13       2.69581      .   S
    Zr7    O13       3.64502  1_655   S
    N14    O15       2.71801      .   S
    Zr2    O15       3.67110  1_455   S
    N14    O16       2.69553      .   S
    Zr6    O16       3.64460      .   S
    N17    O18       2.71886      .   S
    Zr6    O18       3.67199      .   S
    N17    O19       2.69703      .   S
    Zr2    O19       3.64661  1_465   S
    N20    O21       2.24686  1_554   S
    Zr0    O21       3.16816      .   S
    N20    O22       2.27956      .   S
    Zr2    O22       3.11734  1_565   S
    N23    O24       2.24419      .   S
    Zr4    O24       3.16507      .   S
    N23    O25       2.28058      .   S
    Zr6    O25       3.11876      .   S
    N26    O27       2.24414      .   S
    Zr5    O27       3.16507      .   S
    N26    O28       2.28058      .   S
    Zr7    O28       3.11865      .   S
    N29    O30       2.69571      .   S
    Zr5    O30       3.64476      .   S
    N29    O31       2.71819      .   S
    Zr0    O31       3.67074      .   S
    N32    O33       2.71853  1_455   S
    Zr1    O33       3.67120      .   S
    N32    O34       2.69589      .   S
    Zr4    O34       3.64496      .   S
    N35    O36       2.24616      .   S
    Zr3    O36       3.16766      .   S
    N35    O37       2.28014      .   S
    Zr1    O37       3.11835  1_545   S
    N38    O39       2.24449      .   S
    Zr2    O39       3.16564      .   S
    N38    O40       2.28120      .   S
    Zr0    O40       3.11989  1_545   S
    N41    O42       2.71797  1_655   S
    Zr4    O42       3.67118      .   S
    N41    O43       2.69712      .   S
    Zr1    O43       3.64682  1_545   S
    N44    O45       2.71778      .   S
    Zr5    O45       3.67093      .   S
    N44    O46       2.69680      .   S
    Zr0    O46       3.64635  1_545   S
    N47    O48       2.24927  1_556   S
    Zr6    O48       3.16970      .   S
    N47    O49       2.27577      .   S
    Zr4    O49       3.11444      .   S
    N50    O51       2.24780  1_556   S
    Zr7    O51       3.16839      .   S
    N50    O52       2.27712      .   S
    Zr5    O52       3.11567      .   S
    N53    O54       2.71836      .   S
    Zr7    O54       3.67152  1_655   S
    N53    O55       2.69675      .   S
    Zr3    O55       3.64650  1_565   S
