# CIF file generated by openbabel 2.4.90, see http://openbabel.sf.net
data_I
_chemical_name_common ''
_cell_length_a 14.308
_cell_length_b 15.844
_cell_length_c 15.845
_cell_angle_alpha 78.291
_cell_angle_beta 63.23
_cell_angle_gamma 63.229
_space_group_name_H-M_alt 'P 1'
_space_group_name_Hall 'P 1'
loop_
    _symmetry_equiv_pos_as_xyz
    x,y,z
loop_
    _atom_site_label
    _atom_site_type_symbol
    _atom_site_fract_x
    _atom_site_fract_y
    _atom_site_fract_z
    _atom_site_occupancy
    H0      H    0.61670   0.34285   0.26244   1.000
    H1      H    0.46046   0.20692   0.40087   1.000
    H2      H    0.50651   0.40376   0.17215   1.000
    H3      H    0.27263   0.27907   0.22614   1.000
    H4      H    0.22145   0.65763   0.73707   1.000
    H5      H    0.06759   0.79306   0.59851   1.000
    H6      H    0.08225   0.59672   0.82750   1.000
    H7      H    0.77750   0.72102   0.77402   1.000
    H8      H    0.12112   0.26357   0.65566   1.000
    H9      H    0.13939   0.40143   0.79205   1.000
    H10     H    0.32126   0.17286   0.59511   1.000
    H11     H    0.50081   0.22509   0.72154   1.000
    H12     H    0.04087   0.73781   0.34166   1.000
    H13     H    0.33287   0.59899   0.20640   1.000
    H14     H    0.09008   0.82810   0.40265   1.000
    H15     H    0.44856   0.77327   0.27945   1.000
    H16     H    0.72150   0.73710   0.65752   1.000
    H17     H    0.56757   0.59859   0.79300   1.000
    H18     H    0.58234   0.82749   0.59656   1.000
    H19     H    0.27753   0.77412   0.72091   1.000
    H20     H    0.11675   0.26251   0.34277   1.000
    H21     H    0.96052   0.40095   0.20682   1.000
    H22     H    0.00000   0.17223   0.40368   1.000
    H23     H    0.77263   0.22626   0.27900   1.000
    H24     H    0.54091   0.34170   0.73776   1.000
    H25     H    0.83290   0.20649   0.59892   1.000
    H26     H    0.59012   0.40273   0.82802   1.000
    H27     H    0.94860   0.27952   0.77300   1.000
    H28     H    0.62112   0.65573   0.26350   1.000
    H29     H    0.63939   0.79213   0.40135   1.000
    H30     H    0.82127   0.59516   0.17280   1.000
    H31     H    0.00000   0.72161   0.22500   1.000
    C32     C    0.36194   0.23354   0.31872   1.000
    C33     C    0.44162   0.24306   0.34041   1.000
    C34     C    0.49552   0.30330   0.28718   1.000
    C35     C    0.46683   0.35551   0.21306   1.000
    C36     C    0.38683   0.34624   0.19185   1.000
    C37     C    0.33434   0.28507   0.24402   1.000
    C38     C    0.91367   0.76653   0.68100   1.000
    C39     C    0.02452   0.75709   0.65920   1.000
    C40     C    0.08552   0.69707   0.71242   1.000
    C41     C    0.03512   0.64486   0.78664   1.000
    C42     C    0.92471   0.65399   0.80803   1.000
    C43     C    0.86305   0.71508   0.75596   1.000
    C44     C    0.31946   0.31841   0.76631   1.000
    C45     C    0.21835   0.34072   0.75616   1.000
    C46     C    0.21758   0.28786   0.69557   1.000
    C47     C    0.32007   0.21346   0.64360   1.000
    C48     C    0.42103   0.19164   0.65354   1.000
    C49     C    0.42142   0.24343   0.71508   1.000
    C50     C    0.40473   0.68094   0.23347   1.000
    C51     C    0.31556   0.65946   0.24260   1.000
    C52     C    0.20149   0.71284   0.30251   1.000
    C53     C    0.17799   0.78699   0.35474   1.000
    C54     C    0.26721   0.80799   0.34591   1.000
    C55     C    0.38084   0.75561   0.28511   1.000
    C56     C    0.41368   0.68117   0.76645   1.000
    C57     C    0.52451   0.65927   0.75702   1.000
    C58     C    0.58554   0.71248   0.69699   1.000
    C59     C    0.53518   0.78666   0.64472   1.000
    C60     C    0.42479   0.80806   0.65380   1.000
    C61     C    0.36308   0.75604   0.71497   1.000
    C62     C    0.86196   0.31883   0.23346   1.000
    C63     C    0.94166   0.34050   0.24298   1.000
    C64     C    0.99554   0.28727   0.30323   1.000
    C65     C    0.96684   0.21315   0.35544   1.000
    C66     C    0.88684   0.19195   0.34610   1.000
    C67     C    0.83435   0.24413   0.28499   1.000
    C68     C    0.90477   0.23354   0.68087   1.000
    C69     C    0.81560   0.24268   0.65930   1.000
    C70     C    0.70153   0.30259   0.71277   1.000
    C71     C    0.67803   0.35482   0.78692   1.000
    C72     C    0.76725   0.34599   0.80792   1.000
    C73     C    0.88088   0.28518   0.75554   1.000
    C74     C    0.81947   0.76637   0.31835   1.000
    C75     C    0.71836   0.75623   0.34065   1.000
    C76     C    0.71759   0.69563   0.28778   1.000
    C77     C    0.82009   0.64372   0.21339   1.000
    C78     C    0.92104   0.65360   0.19157   1.000
    C79     C    0.92142   0.71514   0.24337   1.000
    O80     O    0.57208   0.30859   0.31133   1.000
    O81     O    0.19138   0.69193   0.68821   1.000
    O82     O    0.11721   0.31263   0.68952   1.000
    O83     O    0.11966   0.68887   0.30748   1.000
    O84     O    0.69137   0.68829   0.69191   1.000
    O85     O    0.07210   0.31142   0.30853   1.000
    O86     O    0.61970   0.30758   0.68880   1.000
    O87     O    0.61721   0.68959   0.31255   1.000
loop_
    _geom_bond_atom_site_label_1
    _geom_bond_atom_site_label_2
    _geom_bond_distance
    _geom_bond_site_symmetry_2
    _ccdc_geom_bond_type
    H2     C35       1.08869      .   S
    H30    C77       1.08870      .   S
    C78    C77       1.40090      .   S
    C78    C79       1.39933      .   S
    C36    C35       1.40094      .   S
    C36    C37       1.39931      .   S
    H13    C51       1.09062      .   S
    H21    C63       1.09058      .   S
    C35    C34       1.40220      .   S
    C77    C76       1.40224      .   S
    H31    C79       1.07522  1_455   S
    H3     C37       1.08664      .   S
    C62    C63       1.40336      .   S
    C62    C67       1.40069      .   S
    C50    C51       1.40331      .   S
    C50    C55       1.40092      .   S
    C51    C52       1.40257      .   S
    C63    C64       1.40265      .   S
    C79    C74       1.40065      .   S
    C37    C32       1.40069      .   S
    H0     O80       0.99920      .   S
    H28    O87       0.99911      .   S
    H23    C67       1.08658      .   S
    H15    C55       1.08669      .   S
    C67    C66       1.39857      .   S
    C55    C54       1.39939      .   S
    C34    O80       1.35151      .   S
    C34    C33       1.40266      .   S
    C76    O87       1.35160      .   S
    C76    C75       1.40278      .   S
    C52    O83       1.35144      .   S
    C52    C53       1.40223      .   S
    C64    O85       1.35163  1_655   S
    C64    C65       1.40229      .   S
    O83    H12       0.99922      .   S
    O85    H20       0.99930      .   S
    C74    C75       1.40342      .   S
    C32    C33       1.40336      .   S
    C33    H1        1.09052      .   S
    C75    H29       1.09057      .   S
    C54    C53       1.40095      .   S
    C66    C65       1.40143      .   S
    C53    H14       1.08863      .   S
    C65    H22       1.03834  1_655   S
    H10    C47       1.08780      .   S
    H18    C59       1.08861      .   S
    H5     C39       1.09059      .   S
    H25    C69       1.08940      .   S
    C47    C48       1.40145      .   S
    C47    C46       1.40250      .   S
    C59    C60       1.40107      .   S
    C59    C58       1.40217      .   S
    C48    C49       1.39926      .   S
    C60    C61       1.39954      .   S
    H8     O82       0.99905      .   S
    H16    O84       0.99922      .   S
    C39    C38       1.40384  1_455   S
    C39    C40       1.40249      .   S
    C69    C68       1.40417      .   S
    C69    C70       1.40285      .   S
    C68    C73       1.40093      .   S
    C38    C43       1.40135      .   S
    O81    C40       1.35139      .   S
    O81    H4        0.99921      .   S
    O86    C70       1.35136      .   S
    O86    H24       0.99922      .   S
    O82    C46       1.35159      .   S
    O84    C58       1.35142      .   S
    C46    C45       1.40274      .   S
    C58    C57       1.40258      .   S
    C40    C41       1.40213      .   S
    C70    C71       1.40227      .   S
    C61    H19       1.08663      .   S
    C61    C56       1.40079      .   S
    C49    H11       1.08660      .   S
    C49    C44       1.40062      .   S
    C73    H27       1.08469      .   S
    C73    C72       1.39939      .   S
    C43    H7        1.08663      .   S
    C43    C42       1.39940      .   S
    C45    C44       1.40339      .   S
    C45    H9        1.09056      .   S
    C57    C56       1.40334      .   S
    C57    H17       1.09053      .   S
    C41    C42       1.40103  1_455   S
    C41    H6        1.08867      .   S
    C71    C72       1.40090      .   S
    C71    H26       1.08860      .   S
