# CIF file generated by openbabel 2.4.90, see http://openbabel.sf.net
data_I
_chemical_name_common ''
_cell_length_a 14.308
_cell_length_b 15.844
_cell_length_c 15.845
_cell_angle_alpha 78.291
_cell_angle_beta 63.23
_cell_angle_gamma 63.229
_space_group_name_H-M_alt 'P 1'
_space_group_name_Hall 'P 1'
loop_
    _symmetry_equiv_pos_as_xyz
    x,y,z
loop_
    _atom_site_label
    _atom_site_type_symbol
    _atom_site_fract_x
    _atom_site_fract_y
    _atom_site_fract_z
    _atom_site_occupancy
    C0      C    0.30889   0.16672   0.37484   1.000
    C1      C    0.35573   0.40409   0.11392   1.000
    C2      C    0.84992   0.83319   0.62489   1.000
    C3      C    0.87392   0.59599   0.88601   1.000
    C4      C    0.31656   0.37430   0.83332   1.000
    C5      C    0.52983   0.11365   0.59576   1.000
    C6      C    0.52450   0.62471   0.16683   1.000
    C7      C    0.24032   0.88599   0.40383   1.000
    C8      C    0.34989   0.62502   0.83310   1.000
    C9      C    0.37403   0.88601   0.59580   1.000
    C10     C    0.80890   0.37495   0.16660   1.000
    C11     C    0.85571   0.11401   0.40390   1.000
    C12     C    0.02456   0.16690   0.62464   1.000
    C13     C    0.74033   0.40392   0.88590   1.000
    C14     C    0.81656   0.83339   0.37423   1.000
    C15     C    0.02988   0.59588   0.11356   1.000
    O16     O    0.36641   0.09717   0.41661   1.000
    O17     O    0.21366   0.17454   0.38311   1.000
    O18     O    0.30105   0.38437   0.08196   1.000
    O19     O    0.38550   0.47361   0.08208   1.000
    O20     O    0.87965   0.90280   0.58309   1.000
    O21     O    0.77085   0.82520   0.61663   1.000
    O22     O    0.76756   0.61590   0.91859   1.000
    O23     O    0.94173   0.52619   0.91720   1.000
    O24     O    0.21725   0.41626   0.90269   1.000
    O25     O    0.40362   0.38222   0.82573   1.000
    O26     O    0.61627   0.08146   0.61568   1.000
    O27     O    0.53195   0.08207   0.52603   1.000
    O28     O    0.53650   0.58321   0.09703   1.000
    O29     O    0.61185   0.61616   0.17497   1.000
    O30     O    0.31446   0.91815   0.38421   1.000
    O31     O    0.14112   0.91771   0.47328   1.000
    O32     O    0.37968   0.58315   0.90269   1.000
    O33     O    0.27073   0.61685   0.82521   1.000
    O34     O    0.26769   0.91856   0.61560   1.000
    O35     O    0.44186   0.91719   0.52601   1.000
    O36     O    0.86641   0.41672   0.09709   1.000
    O37     O    0.71366   0.38322   0.17449   1.000
    O38     O    0.80102   0.08211   0.38420   1.000
    O39     O    0.88547   0.08209   0.47349   1.000
    O40     O    0.03655   0.09711   0.58310   1.000
    O41     O    0.11192   0.17502   0.61608   1.000
    O42     O    0.81446   0.38436   0.91807   1.000
    O43     O    0.64110   0.47335   0.91762   1.000
    O44     O    0.71728   0.90283   0.41609   1.000
    O45     O    0.90359   0.82576   0.38226   1.000
    O46     O    0.11624   0.61591   0.08136   1.000
    O47     O    0.03214   0.52609   0.08190   1.000
loop_
    _geom_bond_atom_site_label_1
    _geom_bond_atom_site_label_2
    _geom_bond_distance
    _geom_bond_site_symmetry_2
    _ccdc_geom_bond_type
    O46    C15       1.26785      .   S
    O47    C15       1.28607      .   S
    O18    C1        1.26779      .   S
    O19    C1        1.28570      .   S
    O28    C6        1.30666      .   S
    O36    C10       1.30627      .   S
    C10    O37       1.25772      .   S
    C6     O29       1.25800      .   S
    C14    O45       1.25779      .   S
    C14    O44       1.30680      .   S
    C0     O17       1.25804      .   S
    C0     O16       1.30661      .   S
    O38    C11       1.26724      .   S
    O30    C7        1.26776      .   S
    C7     O31       1.28572      .   S
    C11    O39       1.28665      .   S
    O35    C9        1.28542      .   S
    O27    C5        1.28551      .   S
    O20    C2        1.30694      .   S
    O40    C12       1.30697      .   S
    C5     O26       1.26783      .   S
    C9     O34       1.26815      .   S
    O41    C12       1.25795      .   S
    O21    C2        1.25777      .   S
    O33    C8        1.25749      .   S
    O25    C4        1.25770      .   S
    C8     O32       1.30742      .   S
    C4     O24       1.30684      .   S
    C13    O43       1.28573      .   S
    C13    O42       1.26788      .   S
    C3     O23       1.28534      .   S
    C3     O22       1.26792      .   S
