# CIF file generated by openbabel 2.4.90, see http://openbabel.sf.net
data_I
_chemical_name_common ''
_cell_length_a 14.308
_cell_length_b 15.844
_cell_length_c 15.845
_cell_angle_alpha 78.291
_cell_angle_beta 63.23
_cell_angle_gamma 63.229
_space_group_name_H-M_alt 'P 1'
_space_group_name_Hall 'P 1'
loop_
    _symmetry_equiv_pos_as_xyz
    x,y,z
loop_
    _atom_site_label
    _atom_site_type_symbol
    _atom_site_fract_x
    _atom_site_fract_y
    _atom_site_fract_z
    _atom_site_occupancy
    Ca0     Ca   0.96536   0.99960   0.56946   1.000
    Ca1     Ca   0.03510   0.42979   0.99945   1.000
    Ca2     Ca   0.46538   0.56957   0.99950   1.000
    Cd3     Cd   0.23660   0.02678   0.49994   1.000
    Cd4     Cd   0.76299   0.97355   0.49977   1.000
    Cd5     Cd   0.26293   0.49993   0.97345   1.000
    Cd6     Cd   0.73658   0.50007   0.02672   1.000
    Ca7     Ca   0.53510   0.99954   0.42965   1.000
    C8      C    0.30889   0.16672   0.37484   1.000
    C9      C    0.35573   0.40409   0.11392   1.000
    C10     C    0.84992   0.83319   0.62489   1.000
    C11     C    0.87392   0.59599   0.88601   1.000
    C12     C    0.31656   0.37430   0.83332   1.000
    C13     C    0.52983   0.11365   0.59576   1.000
    C14     C    0.52450   0.62471   0.16683   1.000
    C15     C    0.24032   0.88599   0.40383   1.000
    C16     C    0.34989   0.62502   0.83310   1.000
    C17     C    0.37403   0.88601   0.59580   1.000
    C18     C    0.80890   0.37495   0.16660   1.000
    C19     C    0.85571   0.11401   0.40390   1.000
    C20     C    0.02456   0.16690   0.62464   1.000
    C21     C    0.74033   0.40392   0.88590   1.000
    C22     C    0.81656   0.83339   0.37423   1.000
    C23     C    0.02988   0.59588   0.11356   1.000
    O24     O    0.36641   0.09717   0.41661   1.000
    O25     O    0.21366   0.17454   0.38311   1.000
    O26     O    0.30105   0.38437   0.08196   1.000
    O27     O    0.38550   0.47361   0.08208   1.000
    O28     O    0.87965   0.90280   0.58309   1.000
    O29     O    0.77085   0.82520   0.61663   1.000
    O30     O    0.76756   0.61590   0.91859   1.000
    O31     O    0.94173   0.52619   0.91720   1.000
    O32     O    0.21725   0.41626   0.90269   1.000
    O33     O    0.40362   0.38222   0.82573   1.000
    O34     O    0.61627   0.08146   0.61568   1.000
    O35     O    0.53195   0.08207   0.52603   1.000
    O36     O    0.53650   0.58321   0.09703   1.000
    O37     O    0.61185   0.61616   0.17497   1.000
    O38     O    0.31446   0.91815   0.38421   1.000
    O39     O    0.14112   0.91771   0.47328   1.000
    O40     O    0.37968   0.58315   0.90269   1.000
    O41     O    0.27073   0.61685   0.82521   1.000
    O42     O    0.26769   0.91856   0.61560   1.000
    O43     O    0.44186   0.91719   0.52601   1.000
    O44     O    0.86641   0.41672   0.09709   1.000
    O45     O    0.71366   0.38322   0.17449   1.000
    O46     O    0.80102   0.08211   0.38420   1.000
    O47     O    0.88547   0.08209   0.47349   1.000
    O48     O    0.03655   0.09711   0.58310   1.000
    O49     O    0.11192   0.17502   0.61608   1.000
    O50     O    0.81446   0.38436   0.91807   1.000
    O51     O    0.64110   0.47335   0.91762   1.000
    O52     O    0.71728   0.90283   0.41609   1.000
    O53     O    0.90359   0.82576   0.38226   1.000
    O54     O    0.11624   0.61591   0.08136   1.000
    O55     O    0.03214   0.52609   0.08190   1.000
    Og56    Og   0.32657   0.18899   0.35613   1.000
    Og57    Og   0.36610   0.38481   0.13990   1.000
    Og58    Og   0.87117   0.81097   0.64359   1.000
    Og59    Og   0.89085   0.61533   0.86002   1.000
    Og60    Og   0.31752   0.35567   0.81098   1.000
    Og61    Og   0.49357   0.13964   0.61502   1.000
    Og62    Og   0.48458   0.64346   0.18904   1.000
    Og63    Og   0.24928   0.85999   0.38452   1.000
    Og64    Og   0.37115   0.64374   0.81088   1.000
    Og65    Og   0.39095   0.86003   0.61513   1.000
    Og66    Og   0.82659   0.35625   0.18889   1.000
    Og67    Og   0.86609   0.13999   0.38463   1.000
    Og68    Og   0.98463   0.18911   0.64338   1.000
    Og69    Og   0.74930   0.38461   0.85991   1.000
    Og70    Og   0.81753   0.81105   0.35560   1.000
    Og71    Og   0.99360   0.61512   0.13956   1.000
loop_
    _geom_bond_atom_site_label_1
    _geom_bond_atom_site_label_2
    _geom_bond_distance
    _geom_bond_site_symmetry_2
    _ccdc_geom_bond_type
    Cd6    O36       2.34458      .   S
    Cd6    O44       2.34443      .   S
    Cd6    O50       2.29757  1_554   S
    Cd6    O30       2.29625  1_554   S
    O54    C23       1.26785      .   S
    O54    Cd5       2.29650  1_554   S
    O55    C23       1.28607      .   S
    O55    Ca1       2.17653  1_554   S
    O26    C9        1.26779      .   S
    O26    Cd5       2.29633  1_554   S
    O27    C9        1.28570      .   S
    O27    Ca2       2.17717  1_554   S
    O36    C14       1.30666      .   S
    O44    C18       1.30627      .   S
    C18    O45       1.25772      .   S
    C14    O37       1.25800      .   S
    C22    O53       1.25779      .   S
    C22    O52       1.30680      .   S
    C8     O25       1.25804      .   S
    C8     O24       1.30661      .   S
    O46    C19       1.26724      .   S
    O46    Cd4       2.29671  1_545   S
    O38    C15       1.26776      .   S
    O38    Cd3       2.29767  1_565   S
    C15    O39       1.28572      .   S
    C19    O47       1.28665      .   S
    O52    Cd4       2.34207      .   S
    O24    Cd3       2.34434      .   S
    Ca7    O43       2.17664      .   S
    Ca7    O35       2.17700  1_565   S
    O39    Ca0       2.17731  1_455   S
    O47    Ca0       2.17727  1_545   S
    Cd4    O28       2.34182      .   S
    Cd4    O34       2.29596  1_565   S
    Cd3    O48       2.34445      .   S
    Cd3    O42       2.29522  1_545   S
    O43    C17       1.28542      .   S
    O35    C13       1.28551      .   S
    O28    C10       1.30694      .   S
    O48    C20       1.30697      .   S
    C13    O34       1.26783      .   S
    C17    O42       1.26815      .   S
    O49    C20       1.25795      .   S
    O29    C10       1.25777      .   S
    O41    C16       1.25749      .   S
    O33    C12       1.25770      .   S
    C16    O40       1.30742      .   S
    C12    O32       1.30684      .   S
    C21    O51       1.28573      .   S
    C21    O50       1.26788      .   S
    C11    O31       1.28534      .   S
    C11    O30       1.26792      .   S
    O40    Cd5       2.34167      .   S
    O32    Cd5       2.34199      .   S
    O31    Ca1       2.17683  1_655   S
    O51    Ca2       2.17717      .   S
    O24    Ca7       2.28417  1_545   S
    O28    Ca0       2.28580      .   S
    O32    Ca1       2.28468      .   S
    O36    Ca2       2.28495  1_554   S
    O40    Ca2       2.28594      .   S
    O44    Ca1       2.28438  1_654   S
    O48    Ca0       2.28515  1_445   S
    O52    Ca7       2.28463      .   S
    C8     Og56      0.49685      .   S
    C9     Og57      0.49789      .   S
    C10    Og58      0.49660      .   S
    C11    Og59      0.49792      .   S
    C12    Og60      0.49688      .   S
    C13    Og61      0.49786      .   S
    C14    Og62      0.49687      .   S
    C15    Og63      0.49792      .   S
    C16    Og64      0.49682      .   S
    C17    Og65      0.49775      .   S
    C18    Og66      0.49705      .   S
    C19    Og67      0.49786      .   S
    C20    Og68      0.49691  1_455   S
    C21    Og69      0.49788      .   S
    C22    Og70      0.49685      .   S
    C23    Og71      0.49790  1_455   S
