# CIF file generated by openbabel 2.4.90, see http://openbabel.sf.net
data_I
_chemical_name_common ''
_cell_length_a 14.308
_cell_length_b 15.844
_cell_length_c 15.845
_cell_angle_alpha 78.291
_cell_angle_beta 63.23
_cell_angle_gamma 63.229
_space_group_name_H-M_alt 'P 1'
_space_group_name_Hall 'P 1'
loop_
    _symmetry_equiv_pos_as_xyz
    x,y,z
loop_
    _atom_site_label
    _atom_site_type_symbol
    _atom_site_fract_x
    _atom_site_fract_y
    _atom_site_fract_z
    _atom_site_occupancy
    Zr0     Zr   0.53510   0.99954   0.42965   1.000
    Zr1     Zr   0.96536   0.99960   0.56946   1.000
    Zr2     Zr   0.03510   0.42979   0.99945   1.000
    Zr3     Zr   0.46538   0.56957   0.99950   1.000
    Zr4     Zr   0.23660   0.02678   0.49994   1.000
    Zr5     Zr   0.76299   0.97355   0.49977   1.000
    Zr6     Zr   0.26293   0.49993   0.97345   1.000
    Zr7     Zr   0.73658   0.50007   0.02672   1.000
    Zr8     Zr   0.30889   0.16672   0.37484   1.000
    Zr9     Zr   0.35573   0.40409   0.11392   1.000
    Zr10    Zr   0.84992   0.83319   0.62489   1.000
    Zr11    Zr   0.87392   0.59599   0.88601   1.000
    Zr12    Zr   0.31656   0.37430   0.83332   1.000
    Zr13    Zr   0.52983   0.11365   0.59576   1.000
    Zr14    Zr   0.52450   0.62471   0.16683   1.000
    Zr15    Zr   0.24032   0.88599   0.40383   1.000
    Zr16    Zr   0.34989   0.62502   0.83310   1.000
    Zr17    Zr   0.37403   0.88601   0.59580   1.000
    Zr18    Zr   0.80890   0.37495   0.16660   1.000
    Zr19    Zr   0.85571   0.11401   0.40390   1.000
    Zr20    Zr   0.02456   0.16690   0.62464   1.000
    Zr21    Zr   0.74033   0.40392   0.88590   1.000
    Zr22    Zr   0.81656   0.83339   0.37423   1.000
    Zr23    Zr   0.02988   0.59588   0.11356   1.000
    Zr24    Zr   0.36641   0.09717   0.41661   1.000
    Zr25    Zr   0.21366   0.17454   0.38311   1.000
    Zr26    Zr   0.30105   0.38437   0.08196   1.000
    Zr27    Zr   0.38550   0.47361   0.08208   1.000
    Zr28    Zr   0.87965   0.90280   0.58309   1.000
    Zr29    Zr   0.77085   0.82520   0.61663   1.000
    Zr30    Zr   0.76756   0.61590   0.91859   1.000
    Zr31    Zr   0.94173   0.52619   0.91720   1.000
    Zr32    Zr   0.21725   0.41626   0.90269   1.000
    Zr33    Zr   0.40362   0.38222   0.82573   1.000
    Zr34    Zr   0.61627   0.08146   0.61568   1.000
    Zr35    Zr   0.53195   0.08207   0.52603   1.000
    Zr36    Zr   0.53650   0.58321   0.09703   1.000
    Zr37    Zr   0.61185   0.61616   0.17497   1.000
    Zr38    Zr   0.31446   0.91815   0.38421   1.000
    Zr39    Zr   0.14112   0.91771   0.47328   1.000
    Zr40    Zr   0.37968   0.58315   0.90269   1.000
    Zr41    Zr   0.27073   0.61685   0.82521   1.000
    Zr42    Zr   0.26769   0.91856   0.61560   1.000
    Zr43    Zr   0.44186   0.91719   0.52601   1.000
    Zr44    Zr   0.86641   0.41672   0.09709   1.000
    Zr45    Zr   0.71366   0.38322   0.17449   1.000
    Zr46    Zr   0.80102   0.08211   0.38420   1.000
    Zr47    Zr   0.88547   0.08209   0.47349   1.000
    Zr48    Zr   0.03655   0.09711   0.58310   1.000
    Zr49    Zr   0.11192   0.17502   0.61608   1.000
    Zr50    Zr   0.81446   0.38436   0.91807   1.000
    Zr51    Zr   0.64110   0.47335   0.91762   1.000
    Zr52    Zr   0.71728   0.90283   0.41609   1.000
    Zr53    Zr   0.90359   0.82576   0.38226   1.000
    Zr54    Zr   0.11624   0.61591   0.08136   1.000
    Zr55    Zr   0.03214   0.52609   0.08190   1.000
    O56     O    0.63654   0.54164   0.06187   1.000
    O57     O    0.80149   0.45839   0.06190   1.000
    O58     O    0.77552   0.44222   0.97240   1.000
    O59     O    0.75207   0.55799   0.97265   1.000
    O60     O    0.07306   0.60590   0.09746   1.000
    O61     O    0.18958   0.55792   0.02741   1.000
    O62     O    0.03101   0.56098   0.09773   1.000
    O63     O    0.03362   0.47794   0.04067   1.000
    O64     O    0.32839   0.39423   0.09794   1.000
    O65     O    0.28199   0.44215   0.02771   1.000
    O66     O    0.37062   0.43885   0.09800   1.000
    O67     O    0.42544   0.52159   0.04079   1.000
    O68     O    0.53050   0.60396   0.13193   1.000
    O69     O    0.83765   0.39584   0.13184   1.000
    O70     O    0.76128   0.37909   0.17055   1.000
    O71     O    0.56818   0.62043   0.17090   1.000
    O72     O    0.86007   0.82957   0.37824   1.000
    O73     O    0.76692   0.86811   0.39516   1.000
    O74     O    0.26128   0.17063   0.37897   1.000
    O75     O    0.33765   0.13194   0.39572   1.000
    O76     O    0.82837   0.09806   0.39405   1.000
    O77     O    0.78201   0.02783   0.44199   1.000
    O78     O    0.27739   0.90207   0.39402   1.000
    O79     O    0.27553   0.97246   0.44207   1.000
    O80     O    0.19072   0.90185   0.43855   1.000
    O81     O    0.87059   0.09805   0.43870   1.000
    O82     O    0.74014   0.93819   0.45793   1.000
    O83     O    0.30151   0.06197   0.45827   1.000
    O84     O    0.48848   0.95837   0.47783   1.000
    O85     O    0.53353   0.04081   0.47784   1.000
    O86     O    0.05324   0.95866   0.52137   1.000
    O87     O    0.92542   0.04084   0.52148   1.000
    O88     O    0.82132   0.93817   0.54143   1.000
    O89     O    0.68963   0.02751   0.55772   1.000
    O90     O    0.13658   0.06194   0.54152   1.000
    O91     O    0.25215   0.97267   0.55777   1.000
    O92     O    0.40795   0.90160   0.56090   1.000
    O93     O    0.53089   0.09786   0.56089   1.000
    O94     O    0.86478   0.86799   0.60399   1.000
    O95     O    0.03055   0.13200   0.60387   1.000
    O96     O    0.57305   0.09755   0.60572   1.000
    O97     O    0.32086   0.90228   0.60570   1.000
    O98     O    0.06824   0.17096   0.62036   1.000
    O99     O    0.81039   0.82920   0.62076   1.000
    O100    O    0.31031   0.62094   0.82915   1.000
    O101    O    0.36009   0.37826   0.82952   1.000
    O102    O    0.36478   0.60409   0.86789   1.000
    O103    O    0.26690   0.39528   0.86800   1.000
    O104    O    0.69072   0.43864   0.90176   1.000
    O105    O    0.77740   0.39414   0.90198   1.000
    O106    O    0.90782   0.56109   0.90160   1.000
    O107    O    0.82074   0.60595   0.90230   1.000
    O108    O    0.32130   0.54154   0.93807   1.000
    O109    O    0.24009   0.45810   0.93807   1.000
    O110    O    0.98841   0.47799   0.95832   1.000
    O111    O    0.55324   0.52146   0.95856   1.000
    O112    O    0.45076   0.04835   0.42313   1.000
    O113    O    0.92250   0.95120   0.57627   1.000
    O114    O    0.12618   0.42303   0.95107   1.000
    O115    O    0.50094   0.57639   0.04827   1.000
    O116    O    0.42253   0.57636   0.95109   1.000
    O117    O    0.95075   0.42325   0.04827   1.000
    O118    O    0.00095   0.04835   0.57628   1.000
    O119    O    0.62619   0.95119   0.42287   1.000
    N120    N    0.25271   0.73008   0.30018   1.000
    O121    O    0.35866   0.69145   0.25016   1.000
    O122    O    0.25324   0.78853   0.33752   1.000
    N123    N    0.94629   0.26993   0.30064   1.000
    O124    O    0.90878   0.21145   0.33782   1.000
    O125    O    0.89086   0.30841   0.25033   1.000
    N126    N    0.78336   0.69863   0.27003   1.000
    O127    O    0.80069   0.74926   0.30816   1.000
    O128    O    0.87941   0.66168   0.21130   1.000
    N129    N    0.44686   0.30072   0.26983   1.000
    O130    O    0.40907   0.33794   0.21136   1.000
    O131    O    0.39114   0.25042   0.30831   1.000
    N132    N    0.75275   0.30026   0.72998   1.000
    O133    O    0.85871   0.25024   0.69137   1.000
    O134    O    0.75327   0.33761   0.78845   1.000
    N135    N    0.01698   0.69954   0.72987   1.000
    O136    O    0.95815   0.66227   0.78844   1.000
    O137    O    0.94939   0.74970   0.69141   1.000
    N138    N    0.28343   0.27010   0.69856   1.000
    O139    O    0.37943   0.21137   0.66160   1.000
    O140    O    0.30072   0.30823   0.74919   1.000
    N141    N    0.51701   0.72993   0.69944   1.000
    O142    O    0.45821   0.78848   0.66212   1.000
    O143    O    0.44940   0.69152   0.74961   1.000
loop_
    _geom_bond_atom_site_label_1
    _geom_bond_atom_site_label_2
    _geom_bond_distance
    _geom_bond_site_symmetry_2
    _ccdc_geom_bond_type
    Zr7    O56       1.17229      .   S
    Zr36   O56       1.17229      .   S
    Zr7    O57       1.17221      .   S
    Zr44   O57       1.17221      .   S
    Zr7    O58       1.14878  1_554   S
    Zr50   O58       1.14878      .   S
    Zr7    O59       1.14812  1_554   S
    Zr30   O59       1.14812      .   S
    Zr54   O60       0.63392      .   S
    Zr23   O60       0.63392      .   S
    Zr54   O61       1.14825      .   S
    Zr6    O61       1.14825  1_556   S
    Zr55   O62       0.64304      .   S
    Zr23   O62       0.64304      .   S
    Zr55   O63       1.08826      .   S
    Zr2    O63       1.08826  1_556   S
    Zr26   O64       0.63389      .   S
    Zr9    O64       0.63389      .   S
    Zr26   O65       1.14817      .   S
    Zr6    O65       1.14817  1_556   S
    Zr27   O66       0.64285      .   S
    Zr9    O66       0.64285      .   S
    Zr27   O67       1.08858      .   S
    Zr3    O67       1.08858  1_556   S
    Zr36   O68       0.65333      .   S
    Zr14   O68       0.65333      .   S
    Zr44   O69       0.65314      .   S
    Zr18   O69       0.65314      .   S
    Zr18   O70       0.62886      .   S
    Zr45   O70       0.62886      .   S
    Zr14   O71       0.62900      .   S
    Zr37   O71       0.62900      .   S
    Zr22   O72       0.62889      .   S
    Zr53   O72       0.62889      .   S
    Zr22   O73       0.65340      .   S
    Zr52   O73       0.65340      .   S
    Zr8    O74       0.62902      .   S
    Zr25   O74       0.62902      .   S
    Zr8    O75       0.65331      .   S
    Zr24   O75       0.65331      .   S
    Zr46   O76       0.63362      .   S
    Zr19   O76       0.63362      .   S
    Zr46   O77       1.14836      .   S
    Zr5    O77       1.14836  1_565   S
    Zr38   O78       0.63388      .   S
    Zr15   O78       0.63388      .   S
    Zr38   O79       1.14883      .   S
    Zr4    O79       1.14883  1_545   S
    Zr15   O80       0.64286      .   S
    Zr39   O80       0.64286      .   S
    Zr19   O81       0.64332      .   S
    Zr47   O81       0.64332      .   S
    Zr52   O82       1.17103      .   S
    Zr5    O82       1.17103      .   S
    Zr24   O83       1.17217      .   S
    Zr4    O83       1.17217      .   S
    Zr0    O84       1.08832      .   S
    Zr43   O84       1.08832      .   S
    Zr0    O85       1.08850  1_565   S
    Zr35   O85       1.08850      .   S
    Zr39   O86       1.08866      .   S
    Zr1    O86       1.08866  1_655   S
    Zr47   O87       1.08864      .   S
    Zr1    O87       1.08864  1_565   S
    Zr5    O88       1.17091      .   S
    Zr28   O88       1.17091      .   S
    Zr5    O89       1.14798  1_565   S
    Zr34   O89       1.14798      .   S
    Zr4    O90       1.17223      .   S
    Zr48   O90       1.17223      .   S
    Zr4    O91       1.14761  1_545   S
    Zr42   O91       1.14761      .   S
    Zr43   O92       0.64271      .   S
    Zr17   O92       0.64271      .   S
    Zr35   O93       0.64276      .   S
    Zr13   O93       0.64276      .   S
    Zr28   O94       0.65347      .   S
    Zr10   O94       0.65347      .   S
    Zr48   O95       0.65348      .   S
    Zr20   O95       0.65348      .   S
    Zr13   O96       0.63392      .   S
    Zr34   O96       0.63392      .   S
    Zr17   O97       0.63408      .   S
    Zr42   O97       0.63408      .   S
    Zr49   O98       0.62898      .   S
    Zr20   O98       0.62898      .   S
    Zr29   O99       0.62889      .   S
    Zr10   O99       0.62889      .   S
    Zr41   O100      0.62874      .   S
    Zr16   O100      0.62874      .   S
    Zr33   O101      0.62885      .   S
    Zr12   O101      0.62885      .   S
    Zr16   O102      0.65371      .   S
    Zr40   O102      0.65371      .   S
    Zr12   O103      0.65342      .   S
    Zr32   O103      0.65342      .   S
    Zr21   O104      0.64287      .   S
    Zr51   O104      0.64287      .   S
    Zr21   O105      0.63394      .   S
    Zr50   O105      0.63394      .   S
    Zr11   O106      0.64267      .   S
    Zr31   O106      0.64267      .   S
    Zr11   O107      0.63396      .   S
    Zr30   O107      0.63396      .   S
    Zr40   O108      1.17084      .   S
    Zr6    O108      1.17084      .   S
    Zr32   O109      1.17099      .   S
    Zr6    O109      1.17099      .   S
    Zr31   O110      1.08842      .   S
    Zr2    O110      1.08842  1_455   S
    Zr51   O111      1.08859      .   S
    Zr3    O111      1.08859      .   S
    Zr24   O112      1.14208      .   S
    Zr0    O112      1.14208  1_565   S
    Zr28   O113      1.14290      .   S
    Zr1    O113      1.14290      .   S
    Zr32   O114      1.14234      .   S
    Zr2    O114      1.14234      .   S
    Zr36   O115      1.14247      .   S
    Zr3    O115      1.14247  1_556   S
    Zr40   O116      1.14297      .   S
    Zr3    O116      1.14297      .   S
    Zr44   O117      1.14219      .   S
    Zr2    O117      1.14219  1_456   S
    Zr48   O118      1.14257      .   S
    Zr1    O118      1.14257  1_665   S
    Zr52   O119      1.14232      .   S
    Zr0    O119      1.14232      .   S
    N120   O121      1.25678      .   S
    Zr14   O121      1.99398      .   S
    N120   O122      1.20029      .   S
    Zr15   O122      1.93607      .   S
    N123   O124      1.19788      .   S
    Zr19   O124      1.93394      .   S
    N123   O125      1.25403      .   S
    Zr18   O125      1.99175      .   S
    N126   O127      1.25726      .   S
    Zr22   O127      1.99447      .   S
    N126   O128      1.20070      .   S
    Zr23   O128      1.93655  1_455   S
    N129   O130      1.20035      .   S
    Zr9    O130      1.93616      .   S
    N129   O131      1.25683      .   S
    Zr8    O131      1.99403      .   S
    N132   O133      1.25682      .   S
    Zr20   O133      1.99407  1_455   S
    N132   O134      1.20041      .   S
    Zr21   O134      1.93610      .   S
    N135   O136      1.20016  1_455   S
    Zr11   O136      1.93594      .   S
    N135   O137      1.25708  1_455   S
    Zr10   O137      1.99387      .   S
    N138   O139      1.20028      .   S
    Zr13   O139      1.93606      .   S
    N138   O140      1.25688      .   S
    Zr12   O140      1.99416      .   S
    N141   O142      1.20018      .   S
    Zr17   O142      1.93571      .   S
    N141   O143      1.25683      .   S
    Zr16   O143      1.99396      .   S
