# CIF file generated by openbabel 2.4.90, see http://openbabel.sf.net
data_I
_chemical_name_common ''
_cell_length_a 14.308
_cell_length_b 15.844
_cell_length_c 15.845
_cell_angle_alpha 78.291
_cell_angle_beta 63.23
_cell_angle_gamma 63.229
_space_group_name_H-M_alt 'P 1'
_space_group_name_Hall 'P 1'
loop_
    _symmetry_equiv_pos_as_xyz
    x,y,z
loop_
    _atom_site_label
    _atom_site_type_symbol
    _atom_site_fract_x
    _atom_site_fract_y
    _atom_site_fract_z
    _atom_site_occupancy
    Zr0     Zr   0.53510   0.99954   0.42965   1.000
    Zr1     Zr   0.96536   0.99960   0.56946   1.000
    Zr2     Zr   0.03510   0.42979   0.99945   1.000
    Zr3     Zr   0.46538   0.56957   0.99950   1.000
    Zr4     Zr   0.23660   0.02678   0.49994   1.000
    Zr5     Zr   0.76299   0.97355   0.49977   1.000
    Zr6     Zr   0.26293   0.49993   0.97345   1.000
    Zr7     Zr   0.73658   0.50007   0.02672   1.000
    N8      N    0.25271   0.73008   0.30018   1.000
    N9      N    0.94629   0.26993   0.30064   1.000
    N10     N    0.78336   0.69863   0.27003   1.000
    N11     N    0.44686   0.30072   0.26983   1.000
    N12     N    0.75275   0.30026   0.72998   1.000
    N13     N    0.01698   0.69954   0.72987   1.000
    N14     N    0.28343   0.27010   0.69856   1.000
    N15     N    0.51701   0.72993   0.69944   1.000
    C16     C    0.81248   0.85399   0.39086   1.000
    O17     O    0.80658   0.80163   0.34951   1.000
    O18     O    0.77631   0.89609   0.42439   1.000
    O19     O    0.71934   0.90259   0.40686   1.000
    C20     C    0.83347   0.85373   0.60820   1.000
    O21     O    0.82740   0.89595   0.57482   1.000
    O22     O    0.87799   0.90246   0.59224   1.000
    O23     O    0.89143   0.80172   0.64981   1.000
    C24     C    0.84740   0.09274   0.42053   1.000
    O25     O    0.87809   0.15210   0.37917   1.000
    O26     O    0.81470   0.06028   0.43126   1.000
    O27     O    0.88641   0.06679   0.47100   1.000
    C28     C    0.36120   0.90725   0.57914   1.000
    O29     O    0.30667   0.93996   0.56845   1.000
    O30     O    0.42484   0.93281   0.52848   1.000
    O31     O    0.40970   0.84787   0.62063   1.000
    C32     C    0.23197   0.90728   0.42044   1.000
    O33     O    0.25375   0.93987   0.43126   1.000
    O34     O    0.14260   0.93297   0.47090   1.000
    O35     O    0.24260   0.84791   0.37898   1.000
    C36     C    0.05767   0.14634   0.60794   1.000
    O37     O    0.95819   0.19829   0.64965   1.000
    O38     O    0.09712   0.10414   0.57473   1.000
    O39     O    0.02931   0.09735   0.59211   1.000
    C40     C    0.55935   0.09239   0.57916   1.000
    O41     O    0.54644   0.06660   0.52850   1.000
    O42     O    0.46939   0.15188   0.62038   1.000
    O43     O    0.62449   0.05995   0.56844   1.000
    C44     C    0.29632   0.14614   0.39152   1.000
    O45     O    0.29891   0.10406   0.42490   1.000
    O46     O    0.37354   0.09725   0.40732   1.000
    O47     O    0.34373   0.19828   0.34991   1.000
    C48     C    0.86107   0.57936   0.90727   1.000
    O49     O    0.90961   0.62082   0.84786   1.000
    O50     O    0.92474   0.52868   0.93280   1.000
    O51     O    0.80657   0.56867   0.93996   1.000
    C52     C    0.55762   0.60803   0.14628   1.000
    O53     O    0.45814   0.64974   0.19822   1.000
    O54     O    0.59708   0.57483   0.10408   1.000
    O55     O    0.52928   0.59221   0.09727   1.000
    C56     C    0.31248   0.39093   0.85391   1.000
    O57     O    0.30660   0.34958   0.80155   1.000
    O58     O    0.21933   0.40698   0.90249   1.000
    O59     O    0.27628   0.42451   0.89599   1.000
    C60     C    0.73196   0.42055   0.90720   1.000
    O61     O    0.74262   0.37908   0.84782   1.000
    O62     O    0.75374   0.43138   0.93980   1.000
    O63     O    0.64260   0.47100   0.93288   1.000
    C64     C    0.79632   0.39163   0.14606   1.000
    O65     O    0.79891   0.42501   0.10398   1.000
    O66     O    0.87354   0.40744   0.09716   1.000
    O67     O    0.84359   0.35002   0.19820   1.000
    C68     C    0.05942   0.57929   0.09227   1.000
    O69     O    0.96942   0.62049   0.15178   1.000
    O70     O    0.04652   0.52861   0.06647   1.000
    O71     O    0.12450   0.56861   0.05984   1.000
    C72     C    0.34743   0.42069   0.09265   1.000
    O73     O    0.37825   0.37932   0.15201   1.000
    O74     O    0.38643   0.47114   0.06672   1.000
    O75     O    0.31471   0.43142   0.06018   1.000
    C76     C    0.33343   0.60834   0.85367   1.000
    O77     O    0.37798   0.59235   0.90238   1.000
    O78     O    0.32737   0.57494   0.89587   1.000
    O79     O    0.39141   0.64993   0.80164   1.000
loop_
    _geom_bond_atom_site_label_1
    _geom_bond_atom_site_label_2
    _geom_bond_distance
    _geom_bond_site_symmetry_2
    _ccdc_geom_bond_type
    C16    O17       1.20761      .   S
    N10    O17       2.46150      .   S
    C16    O18       0.76174      .   S
    Zr5    O18       1.77428      .   S
    C16    O19       1.13296      .   S
    Zr0    O19       2.27123      .   S
    C20    O21       0.76178      .   S
    Zr5    O21       1.77419      .   S
    C20    O22       1.13336      .   S
    Zr1    O22       2.27225      .   S
    C20    O23       1.20732      .   S
    N13    O23       2.46100  1_455   S
    C24    O25       1.17023      .   S
    N9     O25       2.36441      .   S
    C24    O26       0.78852      .   S
    Zr5    O26       1.78920  1_565   S
    C24    O27       1.08721      .   S
    Zr1    O27       2.16180  1_565   S
    C28    O29       0.79054      .   S
    Zr4    O29       1.79098  1_545   S
    C28    O30       1.08592      .   S
    Zr0    O30       2.15968      .   S
    C28    O31       1.17085      .   S
    N15    O31       2.36724      .   S
    C32    O33       0.78878      .   S
    Zr4    O33       1.78990  1_545   S
    C32    O34       1.08728      .   S
    Zr1    O34       2.16198  1_655   S
    C32    O35       1.17108      .   S
    N8     O35       2.36756      .   S
    C36    O37       1.20759  1_455   S
    N12    O37       2.46100      .   S
    C36    O38       0.76015      .   S
    Zr4    O38       1.77345      .   S
    C36    O39       1.13340      .   S
    Zr1    O39       2.27211  1_665   S
    C40    O41       1.08637      .   S
    Zr0    O41       2.16052  1_565   S
    C40    O42       1.17107      .   S
    N14    O42       2.36758      .   S
    C40    O43       0.78932      .   S
    Zr5    O43       1.78980  1_565   S
    C44    O45       0.76023      .   S
    Zr4    O45       1.77354      .   S
    C44    O46       1.13269      .   S
    Zr0    O46       2.27070  1_565   S
    C44    O47       1.20754      .   S
    N11    O47       2.46099      .   S
    C48    O49       1.17085      .   S
    N13    O49       2.36721  1_455   S
    C48    O50       1.08608      .   S
    Zr2    O50       2.15998  1_455   S
    C48    O51       0.79029      .   S
    Zr7    O51       1.79115  1_554   S
    C52    O53       1.20753      .   S
    N8     O53       2.46092      .   S
    C52    O54       0.76002      .   S
    Zr7    O54       1.77340      .   S
    C52    O55       1.13329      .   S
    Zr3    O55       2.27191  1_556   S
    C56    O57       1.20743      .   S
    N14    O57       2.46094      .   S
    C56    O58       1.13290      .   S
    Zr2    O58       2.27115      .   S
    C56    O59       0.76195      .   S
    Zr6    O59       1.77449      .   S
    C60    O61       1.17112      .   S
    N12    O61       2.36772      .   S
    C60    O62       0.78900      .   S
    Zr7    O62       1.79014  1_554   S
    C60    O63       1.08721      .   S
    Zr3    O63       2.16183      .   S
    C64    O65       0.76019      .   S
    Zr7    O65       1.77356      .   S
    C64    O66       1.13272      .   S
    Zr2    O66       2.27085  1_456   S
    C64    O67       1.20626      .   S
    N9     O67       2.45699      .   S
    C68    O69       1.17144  1_455   S
    N10    O69       2.36837      .   S
    C68    O70       1.08656      .   S
    Zr2    O70       2.16056  1_556   S
    C68    O71       0.78873      .   S
    Zr6    O71       1.78926  1_556   S
    C72    O73       1.17115      .   S
    N11    O73       2.36772      .   S
    C72    O74       1.08683      .   S
    Zr3    O74       2.16125  1_556   S
    C72    O75       0.78907      .   S
    Zr6    O75       1.78964  1_556   S
    C76    O77       1.13339      .   S
    Zr3    O77       2.27232      .   S
    C76    O78       0.76172      .   S
    Zr6    O78       1.77399      .   S
    C76    O79       1.20742      .   S
    N15    O79       2.46084      .   S
