# CIF file generated by openbabel 2.4.90, see http://openbabel.sf.net
data_I
_chemical_name_common 'Al3P3O13'
_cell_length_a 9.0155
_cell_length_b 9.0175
_cell_length_c 19.522
_cell_angle_alpha 90.006
_cell_angle_beta 90.004
_cell_angle_gamma 111.285
_space_group_name_H-M_alt 'P 1'
_space_group_name_Hall 'P 1'
loop_
    _symmetry_equiv_pos_as_xyz
    x,y,z
loop_
    _atom_site_label
    _atom_site_type_symbol
    _atom_site_fract_x
    _atom_site_fract_y
    _atom_site_fract_z
    _atom_site_occupancy
    Al0     Al   0.01741   0.30562   0.32651   1.000
    Al1     Al   0.14192   0.16863   0.08235   1.000
    Al2     Al   0.49665   0.20644   0.31759   1.000
    Al3     Al   0.48256   0.19457   0.82653   1.000
    Al4     Al   0.35799   0.33154   0.58236   1.000
    Al5     Al   0.00333   0.29380   0.81759   1.000
    Al6     Al   0.98256   0.69456   0.67625   1.000
    Al7     Al   0.85804   0.83159   0.92040   1.000
    Al8     Al   0.50328   0.79375   0.68518   1.000
    Al9     Al   0.51739   0.80562   0.17623   1.000
    Al10    Al   0.64198   0.66865   0.42040   1.000
    Al11    Al   0.99657   0.70642   0.18516   1.000
    P12     P    0.33101   0.37152   0.42028   1.000
    P13     P    0.80549   0.51354   0.31001   1.000
    P14     P    0.20117   0.49285   0.15910   1.000
    P15     P    0.16896   0.12870   0.92028   1.000
    P16     P    0.69444   0.98668   0.81002   1.000
    P17     P    0.29873   0.00735   0.65911   1.000
    P18     P    0.66893   0.62866   0.58249   1.000
    P19     P    0.19443   0.48664   0.69275   1.000
    P20     P    0.79882   0.50738   0.84365   1.000
    P21     P    0.83096   0.87151   0.08247   1.000
    P22     P    0.30546   0.01353   0.19274   1.000
    P23     P    0.70127   0.99285   0.34365   1.000
    O24     O    0.07000   0.27021   0.24163   1.000
    O25     O    0.17059   0.34485   0.38615   1.000
    O26     O    0.21620   0.41815   0.23291   1.000
    O27     O    0.94483   0.46200   0.33070   1.000
    O28     O    0.36376   0.62549   0.15239   1.000
    O29     O    0.41075   0.26191   0.38870   1.000
    O30     O    0.85581   0.63176   0.25000   1.000
    O31     O    0.06340   0.55373   0.15834   1.000
    O32     O    0.66044   0.36766   0.28702   1.000
    O33     O    0.17444   0.36811   0.10310   1.000
    O34     O    0.43991   0.54781   0.41102   1.000
    O35     O    0.30082   0.33044   0.49653   1.000
    O36     O    0.76347   0.59470   0.37220   1.000
    O37     O    0.42997   0.22998   0.74165   1.000
    O38     O    0.32940   0.15541   0.88617   1.000
    O39     O    0.28370   0.08211   0.73292   1.000
    O40     O    0.55502   0.03808   0.83072   1.000
    O41     O    0.13614   0.87468   0.65239   1.000
    O42     O    0.08918   0.23825   0.88869   1.000
    O43     O    0.64416   0.86843   0.75000   1.000
    O44     O    0.43651   0.94648   0.65836   1.000
    O45     O    0.83938   0.13266   0.78704   1.000
    O46     O    0.32545   0.13206   0.60311   1.000
    O47     O    0.06010   0.95238   0.91102   1.000
    O48     O    0.19910   0.16980   0.00000   1.000
    O49     O    0.73659   0.90557   0.87220   1.000
    O50     O    0.93000   0.73000   0.76113   1.000
    O51     O    0.82936   0.65536   0.61662   1.000
    O52     O    0.78376   0.58209   0.76984   1.000
    O53     O    0.05506   0.53811   0.67205   1.000
    O54     O    0.63628   0.37466   0.85036   1.000
    O55     O    0.58914   0.73822   0.61408   1.000
    O56     O    0.14413   0.36840   0.75276   1.000
    O57     O    0.93668   0.44662   0.84441   1.000
    O58     O    0.33943   0.63258   0.71575   1.000
    O59     O    0.82548   0.63210   0.89965   1.000
    O60     O    0.56008   0.45235   0.59174   1.000
    O61     O    0.69912   0.66977   0.50624   1.000
    O62     O    0.23653   0.40551   0.63057   1.000
    O63     O    0.57003   0.77021   0.26110   1.000
    O64     O    0.67052   0.84485   0.11658   1.000
    O65     O    0.71627   0.91810   0.26984   1.000
    O66     O    0.44482   0.96202   0.17205   1.000
    O67     O    0.86388   0.12546   0.35038   1.000
    O68     O    0.91065   0.76188   0.11407   1.000
    O69     O    0.35577   0.13175   0.25277   1.000
    O70     O    0.56353   0.05380   0.34440   1.000
    O71     O    0.16044   0.86763   0.21571   1.000
    O72     O    0.67449   0.86812   0.39965   1.000
    O73     O    0.93987   0.04781   0.09175   1.000
    O74     O    0.80082   0.83044   0.00623   1.000
    O75     O    0.26340   0.09467   0.13056   1.000
loop_
    _geom_bond_atom_site_label_1
    _geom_bond_atom_site_label_2
    _geom_bond_distance
    _geom_bond_site_symmetry_2
    _ccdc_geom_bond_type
    O48    Al1       1.68726      .   S
    O48    P15       1.59999  1_554   S
    O74    P21       1.53403      .   S
    O74    Al7       1.75206  1_554   S
    Al1    O73       1.76009  1_455   S
    Al1    O33       1.76143      .   S
    Al1    O75       1.74930      .   S
    P21    O73       1.54626  1_565   S
    P21    O68       1.54585      .   S
    P21    O64       1.53000      .   S
    O33    P14       1.52363      .   S
    O68    Al11      1.74860      .   S
    O64    Al9       1.74153      .   S
    O75    P22       1.53440      .   S
    O28    P14       1.52435      .   S
    O28    Al9       1.77201      .   S
    O31    P14       1.52952      .   S
    O31    Al11      1.77059  1_455   S
    P14    O26       1.61701      .   S
    O66    Al9       1.75892      .   S
    O66    P22       1.54303  1_565   S
    Al9    O63       1.78393      .   S
    Al11   O71       1.75842  1_655   S
    Al11   O30       1.74530      .   S
    P22    O71       1.54689  1_545   S
    P22    O69       1.53759      .   S
    O26    O24       1.50646      .   S
    O24    Al0       1.78392      .   S
    O30    P13       1.53755      .   S
    O69    Al2       1.74544      .   S
    O63    O65       1.50644      .   S
    O65    P23       1.61703      .   S
    O32    P13       1.54691      .   S
    O32    Al2       1.75842      .   S
    P13    O27       1.54304      .   S
    P13    O36       1.53437      .   S
    Al2    O70       1.77057      .   S
    Al2    O29       1.74875      .   S
    Al0    O27       1.75877  1_455   S
    Al0    O67       1.77195  1_455   S
    Al0    O25       1.74147      .   S
    P23    O70       1.52959  1_565   S
    P23    O67       1.52439  1_565   S
    P23    O72       1.52364      .   S
    O36    Al10      1.74932      .   S
    O25    P12       1.52998      .   S
    O29    P12       1.54586      .   S
    O72    Al10      1.76151      .   S
    O34    P12       1.54621      .   S
    O34    Al10      1.76024      .   S
    P12    O35       1.53435      .   S
    Al10   O61       1.75204      .   S
    O35    Al4       1.75205      .   S
    O61    P18       1.53435      .   S
    Al4    O60       1.76025      .   S
    Al4    O46       1.76151      .   S
    Al4    O62       1.74929      .   S
    P18    O60       1.54620      .   S
    P18    O55       1.54585      .   S
    P18    O51       1.52997      .   S
    O46    P17       1.52365      .   S
    O55    Al8       1.74874      .   S
    O51    Al6       1.74150      .   S
    O62    P19       1.53438      .   S
    O41    P17       1.52438  1_565   S
    O41    Al6       1.77195  1_455   S
    O44    P17       1.52959  1_565   S
    O44    Al8       1.77061      .   S
    P17    O39       1.61704      .   S
    O53    Al6       1.75882  1_455   S
    O53    P19       1.54308      .   S
    Al6    O50       1.78392      .   S
    Al8    O58       1.75850      .   S
    Al8    O43       1.74546      .   S
    P19    O58       1.54694      .   S
    P19    O56       1.53757      .   S
    O39    O37       1.50646      .   S
    O37    Al3       1.78393      .   S
    O43    P16       1.53761      .   S
    O56    Al5       1.74534      .   S
    O50    O52       1.50649      .   S
    O52    P20       1.61702      .   S
    O45    P16       1.54693  1_545   S
    O45    Al5       1.75850  1_655   S
    P16    O40       1.54307  1_565   S
    P16    O49       1.53439      .   S
    Al5    O57       1.77063  1_455   S
    Al5    O42       1.74863      .   S
    Al3    O40       1.75898      .   S
    Al3    O54       1.77204      .   S
    Al3    O38       1.74155      .   S
    P20    O57       1.52953      .   S
    P20    O54       1.52436      .   S
    P20    O59       1.52364      .   S
    O49    Al7       1.74926      .   S
    O38    P15       1.53001      .   S
    O42    P15       1.54584      .   S
    O59    Al7       1.76144      .   S
    O47    P15       1.54626  1_565   S
    O47    Al7       1.76010  1_455   S
