# CIF file generated by openbabel 2.4.90, see http://openbabel.sf.net
data_I
_chemical_name_common ''
_cell_length_a 15.316
_cell_length_b 19.21
_cell_length_c 19.485
_cell_angle_alpha 89.964
_cell_angle_beta 90
_cell_angle_gamma 90.069
_space_group_name_H-M_alt 'P 1'
_space_group_name_Hall 'P 1'
loop_
    _symmetry_equiv_pos_as_xyz
    x,y,z
loop_
    _atom_site_label
    _atom_site_type_symbol
    _atom_site_fract_x
    _atom_site_fract_y
    _atom_site_fract_z
    _atom_site_occupancy
    Zn0     Zn   0.75536   0.49988   0.50266   1.000
    Zn1     Zn   0.24475   0.50255   0.00000   1.000
    Zn2     Zn   0.74477   0.50255   0.00000   1.000
    Zn3     Zn   0.24471   0.99963   0.49997   1.000
    Zn4     Zn   0.74473   0.99963   0.49997   1.000
    Zn5     Zn   0.25528   0.00000   0.00000   1.000
    Zn6     Zn   0.75529   0.00000   0.00000   1.000
    Zn7     Zn   0.25534   0.49988   0.50266   1.000
