# CIF file generated by openbabel 2.4.90, see http://openbabel.sf.net
data_I
_chemical_name_common ''
_cell_length_a 15.316
_cell_length_b 19.21
_cell_length_c 19.485
_cell_angle_alpha 89.964
_cell_angle_beta 90
_cell_angle_gamma 90.069
_space_group_name_H-M_alt 'P 1'
_space_group_name_Hall 'P 1'
loop_
    _symmetry_equiv_pos_as_xyz
    x,y,z
loop_
    _atom_site_label
    _atom_site_type_symbol
    _atom_site_fract_x
    _atom_site_fract_y
    _atom_site_fract_z
    _atom_site_occupancy
    N0      N    0.02695   0.72403   0.46706   1.000
    N1      N    0.52695   0.72403   0.46705   1.000
    N2      N    0.93442   0.52554   0.75078   1.000
    N3      N    0.43441   0.52554   0.75078   1.000
    N4      N    0.93357   0.97616   0.24874   1.000
    N5      N    0.43356   0.97616   0.24876   1.000
    N6      N    0.56594   0.47649   0.25122   1.000
    N7      N    0.06593   0.47649   0.25122   1.000
    N8      N    0.52788   0.77744   0.96697   1.000
    N9      N    0.02788   0.77744   0.96693   1.000
    N10     N    0.47192   0.27771   0.96715   1.000
    N11     N    0.97192   0.27771   0.96714   1.000
    N12     N    0.56619   0.02465   0.74865   1.000
    N13     N    0.06619   0.02465   0.74865   1.000
    N14     N    0.97341   0.22422   0.46706   1.000
    N15     N    0.47342   0.22422   0.46706   1.000
    Zr16    Zr   0.74477   0.50255   0.00000   1.000
    O17     O    0.82799   0.57955   0.99240   1.000
    O18     O    0.80973   0.43538   0.98812   1.000
    O19     O    0.65190   0.50795   0.93287   1.000
    O20     O    0.69583   0.49366   0.07587   1.000
    Zr21    Zr   0.24471   0.99963   0.49997   1.000
    O22     O    0.19587   0.00823   0.57487   1.000
    O23     O    0.31021   0.06669   0.48780   1.000
    O24     O    0.15165   0.99416   0.43201   1.000
    O25     O    0.32764   0.92238   0.49208   1.000
    Zr26    Zr   0.75529   0.00000   0.00000   1.000
    O27     O    0.69022   0.93374   0.98782   1.000
    O28     O    0.84830   0.00615   0.93202   1.000
    O29     O    0.67202   0.07806   0.99211   1.000
    O30     O    0.80404   0.99202   0.07493   1.000
    Zr31    Zr   0.74473   0.99963   0.49997   1.000
    O32     O    0.65166   0.99416   0.43201   1.000
    O33     O    0.69588   0.00823   0.57488   1.000
    O34     O    0.81021   0.06669   0.48780   1.000
    O35     O    0.82765   0.92238   0.49208   1.000
    Zr36    Zr   0.25534   0.49988   0.50266   1.000
    O37     O    0.30436   0.50866   0.57740   1.000
    O38     O    0.34826   0.49442   0.43462   1.000
    O39     O    0.17255   0.42256   0.49411   1.000
    O40     O    0.18995   0.56681   0.48974   1.000
    Zr41    Zr   0.25528   0.00000   0.00000   1.000
    O42     O    0.19020   0.93374   0.98781   1.000
    O43     O    0.34829   0.00615   0.93203   1.000
    O44     O    0.17201   0.07806   0.99211   1.000
    O45     O    0.30403   0.99202   0.07494   1.000
    Zr46    Zr   0.75536   0.49988   0.50266   1.000
    O47     O    0.84827   0.49442   0.43462   1.000
    O48     O    0.67257   0.42256   0.49411   1.000
    O49     O    0.80438   0.50866   0.57740   1.000
    O50     O    0.68996   0.56681   0.48974   1.000
    Zr51    Zr   0.24475   0.50255   0.00000   1.000
    O52     O    0.32798   0.57955   0.99241   1.000
    O53     O    0.19582   0.49366   0.07587   1.000
    O54     O    0.30972   0.43538   0.98812   1.000
    O55     O    0.15189   0.50795   0.93287   1.000
loop_
    _geom_bond_atom_site_label_1
    _geom_bond_atom_site_label_2
    _geom_bond_distance
    _geom_bond_site_symmetry_2
    _ccdc_geom_bond_type
    Zr16   O17       1.95698  1_554   S
    N9     O17       4.90299  1_455   S
    Zr16   O18       1.64691  1_554   S
    N11    O18       3.94094      .   S
    Zr16   O19       1.93515  1_554   S
    N3     O19       4.87860      .   S
    Zr16   O20       1.66598      .   S
    N6     O20       3.96707      .   S
    Zr21   O22       1.64855  1_565   S
    N13    O22       3.93858      .   S
    Zr21   O23       1.64887  1_565   S
    N15    O23       3.94328      .   S
    Zr21   O24       1.94835      .   S
    N4     O24       4.90165  1_655   S
    Zr21   O25       1.96042      .   S
    N1     O25       4.90989      .   S
    Zr26   O27       1.63317  1_544   S
    N8     O27       3.91735      .   S
    Zr26   O28       1.94855  1_554   S
    N13    O28       4.90156  1_455   S
    Zr26   O29       1.97561  1_554   S
    N10    O29       4.93611      .   S
    Zr26   O30       1.64705  1_545   S
    N4     O30       3.93679      .   S
    Zr31   O32       1.94837      .   S
    N5     O32       4.90167      .   S
    Zr31   O33       1.64857  1_565   S
    N12    O33       3.93866      .   S
    Zr31   O34       1.64880  1_565   S
    N14    O34       3.94311      .   S
    Zr31   O35       1.96037      .   S
    N0     O35       4.90974  1_455   S
    Zr36   O37       1.64717      .   S
    N3     O37       3.93506      .   S
    Zr36   O38       1.94787      .   S
    N6     O38       4.89998      .   S
    Zr36   O39       1.95884      .   S
    N14    O39       4.90645  1_655   S
    Zr36   O40       1.64994      .   S
    N0     O40       3.94536      .   S
    Zr41   O42       1.63317  1_544   S
    N9     O42       3.91732      .   S
    Zr41   O43       1.94860  1_554   S
    N12    O43       4.90169      .   S
    Zr41   O44       1.97557  1_554   S
    N11    O44       4.93599  1_655   S
    Zr41   O45       1.64713  1_545   S
    N5     O45       3.93701      .   S
    Zr46   O47       1.94780      .   S
    N7     O47       4.89978  1_455   S
    Zr46   O48       1.95886      .   S
    N15    O48       4.90649      .   S
    Zr46   O49       1.64715      .   S
    N2     O49       3.93498      .   S
    Zr46   O50       1.64997      .   S
    N1     O50       3.94546      .   S
    Zr51   O52       1.95701  1_554   S
    N8     O52       4.90307      .   S
    Zr51   O53       1.66598      .   S
    N7     O53       3.96705      .   S
    Zr51   O54       1.64694  1_554   S
    N10    O54       3.94103      .   S
    Zr51   O55       1.93510  1_554   S
    N2     O55       4.87844  1_655   S
