# CIF file generated by openbabel 2.4.90, see http://openbabel.sf.net
data_I
_chemical_name_common ''
_cell_length_a 9.796
_cell_length_b 11.607
_cell_length_c 13.79
_cell_angle_alpha 65.865
_cell_angle_beta 88.867
_cell_angle_gamma 81.927
_space_group_name_H-M_alt 'P 1'
_space_group_name_Hall 'P 1'
loop_
    _symmetry_equiv_pos_as_xyz
    x,y,z
loop_
    _atom_site_label
    _atom_site_type_symbol
    _atom_site_fract_x
    _atom_site_fract_y
    _atom_site_fract_z
    _atom_site_occupancy
    H0      H    0.30195   0.46177   0.91225   1.000
    H1      H    0.62675   0.68116   0.89964   1.000
    H2      H    0.63109   0.06404   0.11750   1.000
    H3      H    0.29328   0.89223   0.06625   1.000
    H4      H    0.13120   0.59310   0.59619   1.000
    H5      H    0.77172   0.61163   0.41080   1.000
    H6      H    0.69792   0.53829   0.08775   1.000
    H7      H    0.37311   0.31891   0.10036   1.000
    H8      H    0.36865   0.93614   0.88244   1.000
    H9      H    0.70648   0.10796   0.93369   1.000
    H10     H    0.86869   0.40696   0.40375   1.000
    H11     H    0.22817   0.38843   0.58914   1.000
    C12     C    0.42088   0.66685   0.78291   1.000
    C13     C    0.46002   0.58076   0.89344   1.000
    C14     C    0.38835   0.47854   0.95090   1.000
    C15     C    0.57191   0.60126   0.94398   1.000
    C16     C    0.41672   0.95095   0.21225   1.000
    C17     C    0.45770   0.97501   0.10393   1.000
    C18     C    0.57448   0.03571   0.06567   1.000
    C19     C    0.38336   0.93980   0.03690   1.000
    C20     C    0.88371   0.73921   0.50272   1.000
    C21     C    0.94565   0.61778   0.50137   1.000
    C22     C    0.07470   0.55465   0.55157   1.000
    C23     C    0.87124   0.56183   0.45023   1.000
    C24     C    0.57899   0.33321   0.21709   1.000
    C25     C    0.53985   0.41930   0.10656   1.000
    C26     C    0.61152   0.52152   0.04910   1.000
    C27     C    0.42796   0.39880   0.05602   1.000
    C28     C    0.58320   0.04902   0.78775   1.000
    C29     C    0.54220   0.02498   0.89606   1.000
    C30     C    0.42533   0.96439   0.93430   1.000
    C31     C    0.61647   0.06028   0.96306   1.000
    C32     C    0.11618   0.26084   0.49723   1.000
    C33     C    0.05424   0.38227   0.49857   1.000
    C34     C    0.92519   0.44541   0.44837   1.000
    C35     C    0.12865   0.43823   0.54970   1.000
    N36     N    0.50031   0.75478   0.72288   1.000
    N37     N    0.43199   0.81651   0.63024   1.000
    N38     N    0.31416   0.76796   0.63292   1.000
    N39     N    0.30443   0.67294   0.72843   1.000
    N40     N    0.29532   0.91588   0.25467   1.000
    N41     N    0.30594   0.91008   0.35329   1.000
    N42     N    0.42930   0.93984   0.36951   1.000
    N43     N    0.50010   0.96552   0.28251   1.000
    N44     N    0.74648   0.77265   0.50271   1.000
    N45     N    0.73013   0.88762   0.50435   1.000
    N46     N    0.85104   0.92611   0.50489   1.000
    N47     N    0.95085   0.83336   0.50376   1.000
    N48     N    0.49957   0.24528   0.27712   1.000
    N49     N    0.56789   0.18355   0.36976   1.000
    N50     N    0.68571   0.23211   0.36708   1.000
    N51     N    0.69543   0.32713   0.27158   1.000
    N52     N    0.70459   0.08413   0.74532   1.000
    N53     N    0.69396   0.08993   0.64670   1.000
    N54     N    0.57061   0.06016   0.63048   1.000
    N55     N    0.49981   0.03447   0.71749   1.000
    N56     N    0.25341   0.22740   0.49724   1.000
    N57     N    0.26976   0.11242   0.49562   1.000
    N58     N    0.14885   0.07392   0.49508   1.000
    N59     N    0.04904   0.16668   0.49620   1.000
loop_
    _geom_bond_atom_site_label_1
    _geom_bond_atom_site_label_2
    _geom_bond_distance
    _geom_bond_site_symmetry_2
    _ccdc_geom_bond_type
    C19    H3        1.08965      .   S
    C19    C17       1.40387      .   S
    C19    C30       1.39010  1_554   S
    C26    H6        1.08965      .   S
    C26    C25       1.40413      .   S
    C26    C15       1.39027  1_554   S
    C27    H7        1.08892      .   S
    C27    C25       1.40803      .   S
    C27    C14       1.39029  1_554   S
    C18    C17       1.40786  1_545   S
    C18    H2        1.08892      .   S
    C18    C31       1.39011  1_554   S
    C17    C16       1.46175      .   S
    C25    C24       1.46250      .   S
    C16    N40       1.35502      .   S
    C16    N43       1.35593      .   S
    C24    N51       1.35589      .   S
    C24    N48       1.35606      .   S
    N40    N41       1.33929      .   S
    N51    N50       1.34044      .   S
    N48    N49       1.32056      .   S
    N43    N42       1.31986      .   S
    N41    N42       1.34940      .   S
    N50    N49       1.34727      .   S
    H10    C34       1.09155      .   S
    H5     C23       1.08899      .   S
    C34    C23       1.39042      .   S
    C34    C33       1.40496  1_655   S
    C23    C21       1.40648      .   S
    N58    N57       1.32455      .   S
    N58    N59       1.35379      .   S
    N57    N56       1.33091      .   S
    N59    C32       1.35716      .   S
    C32    N56       1.34578      .   S
    C32    C33       1.46149      .   S
    C33    C35       1.40649      .   S
    C21    C20       1.46146      .   S
    C21    C22       1.40496  1_655   S
    N44    C20       1.34579      .   S
    N44    N45       1.33091      .   S
    C20    N47       1.35716      .   S
    N47    N46       1.35378      .   S
    N45    N46       1.32454      .   S
    C35    C22       1.39040      .   S
    C35    H11       1.08898      .   S
    C22    H4        1.09155      .   S
    N37    N38       1.34726      .   S
    N37    N36       1.32055      .   S
    N54    N53       1.34941      .   S
    N54    N55       1.31986      .   S
    N38    N39       1.34044      .   S
    N53    N52       1.33929      .   S
    N55    C28       1.35589      .   S
    N36    C12       1.35607      .   S
    N39    C12       1.35589      .   S
    N52    C28       1.35502      .   S
    C12    C13       1.46250      .   S
    C28    C29       1.46177      .   S
    H8     C30       1.08894      .   S
    C13    C15       1.40803      .   S
    C13    C14       1.40412      .   S
    C29    C30       1.40799  1_545   S
    C29    C31       1.40386      .   S
    H1     C15       1.08892      .   S
    H0     C14       1.08965      .   S
    H9     C31       1.08965      .   S
