# CIF file generated by openbabel 2.4.90, see http://openbabel.sf.net
data_I
_chemical_name_common ''
_cell_length_a 14.131
_cell_length_b 14.13
_cell_length_c 14.133
_cell_angle_alpha 104.811
_cell_angle_beta 104.76
_cell_angle_gamma 104.833
_space_group_name_H-M_alt 'P 1'
_space_group_name_Hall 'P 1'
loop_
    _symmetry_equiv_pos_as_xyz
    x,y,z
loop_
    _atom_site_label
    _atom_site_type_symbol
    _atom_site_fract_x
    _atom_site_fract_y
    _atom_site_fract_z
    _atom_site_occupancy
    H0      H    0.82148   0.10648   0.57437   1.000
    H1      H    0.76361   0.97101   0.50759   1.000
    H2      H    0.80949   0.60198   0.52188   1.000
    H3      H    0.17538   0.25420   0.74485   1.000
    H4      H    0.57438   0.82125   0.10644   1.000
    H5      H    0.50768   0.76337   0.97109   1.000
    H6      H    0.52182   0.80925   0.60190   1.000
    H7      H    0.74477   0.17536   0.25408   1.000
    H8      H    0.63804   0.29244   0.53101   1.000
    H9      H    0.10650   0.57440   0.82140   1.000
    H10     H    0.97107   0.50777   0.76353   1.000
    H11     H    0.60209   0.52197   0.80956   1.000
    H12     H    0.25413   0.74449   0.17527   1.000
    H13     H    0.89354   0.17866   0.42563   1.000
    H14     H    0.02893   0.23654   0.49240   1.000
    H15     H    0.39808   0.19074   0.47820   1.000
    H16     H    0.74586   0.82458   0.25515   1.000
    H17     H    0.17873   0.42560   0.89355   1.000
    H18     H    0.23660   0.49221   0.02892   1.000
    H19     H    0.19049   0.47802   0.39794   1.000
    H20     H    0.82473   0.25547   0.74593   1.000
    H21     H    0.70746   0.36209   0.46930   1.000
    H22     H    0.42563   0.89349   0.17850   1.000
    H23     H    0.49234   0.02897   0.23637   1.000
    H24     H    0.47809   0.39796   0.19049   1.000
    H25     H    0.25528   0.74579   0.82470   1.000
    H26     H    0.46936   0.36211   0.70740   1.000
    H27     H    0.17853   0.89349   0.42565   1.000
    H28     H    0.23640   0.02896   0.49243   1.000
    H29     H    0.19053   0.39799   0.47814   1.000
    H30     H    0.82463   0.74578   0.25517   1.000
    H31     H    0.70730   0.46901   0.36200   1.000
    H32     H    0.42563   0.17872   0.89358   1.000
    H33     H    0.49233   0.23661   0.02893   1.000
    H34     H    0.47819   0.19073   0.39807   1.000
    H35     H    0.25525   0.82462   0.74590   1.000
    H36     H    0.36197   0.70755   0.46900   1.000
    H37     H    0.89351   0.42558   0.17862   1.000
    H38     H    0.02894   0.49220   0.23649   1.000
    H39     H    0.39792   0.47801   0.19046   1.000
    H40     H    0.74588   0.25548   0.82475   1.000
    H41     H    0.63792   0.53084   0.29267   1.000
    H42     H    0.10647   0.82132   0.57439   1.000
    H43     H    0.97108   0.76343   0.50760   1.000
    H44     H    0.60193   0.80924   0.52180   1.000
    H45     H    0.25415   0.17539   0.74487   1.000
    H46     H    0.53111   0.29253   0.63812   1.000
    H47     H    0.82129   0.57437   0.10640   1.000
    H48     H    0.76342   0.50776   0.97110   1.000
    H49     H    0.80952   0.52196   0.60200   1.000
    H50     H    0.17529   0.74450   0.25409   1.000
    H51     H    0.29256   0.63788   0.53066   1.000
    H52     H    0.57438   0.10649   0.82152   1.000
    H53     H    0.50767   0.97100   0.76365   1.000
    H54     H    0.52192   0.60201   0.80953   1.000
    H55     H    0.74474   0.25418   0.17530   1.000
    C56     C    0.91947   0.02331   0.59460   1.000
    C57     C    0.59464   0.91933   0.02330   1.000
    C58     C    0.02332   0.59465   0.91945   1.000
    C59     C    0.80216   0.32588   0.59140   1.000
    C60     C    0.97669   0.08060   0.40540   1.000
    C61     C    0.08064   0.40534   0.97671   1.000
    C62     C    0.40538   0.97667   0.08052   1.000
    C63     C    0.67422   0.19797   0.40864   1.000
    C64     C    0.08054   0.97667   0.40542   1.000
    C65     C    0.40865   0.19799   0.67424   1.000
    C66     C    0.40537   0.08064   0.97672   1.000
    C67     C    0.67409   0.40863   0.19793   1.000
    C68     C    0.97669   0.40533   0.08057   1.000
    C69     C    0.19785   0.67410   0.40862   1.000
    C70     C    0.02332   0.91937   0.59462   1.000
    C71     C    0.80205   0.59131   0.32586   1.000
    C72     C    0.91937   0.59464   0.02331   1.000
    C73     C    0.59141   0.32592   0.80210   1.000
    C74     C    0.59463   0.02330   0.91950   1.000
    C75     C    0.32579   0.80200   0.59138   1.000
    C76     C    0.09706   0.09707   0.67923   1.000
    C77     C    0.67916   0.09705   0.09703   1.000
    C78     C    0.09703   0.67899   0.09700   1.000
    C79     C    0.90295   0.90290   0.32079   1.000
    C80     C    0.90298   0.32099   0.90000   1.000
    C81     C    0.32086   0.90292   0.90299   1.000
    C82     C    0.70251   0.29755   0.50010   1.000
    C83     C    0.50014   0.29760   0.70253   1.000
    C84     C    0.70235   0.49995   0.29760   1.000
    C85     C    0.29751   0.70242   0.49990   1.000
    C86     C    0.71556   0.61176   0.61179   1.000
    C87     C    0.61173   0.71539   0.61172   1.000
    C88     C    0.61181   0.61178   0.71558   1.000
    C89     C    0.38828   0.28459   0.38830   1.000
    C90     C    0.28446   0.38821   0.38823   1.000
    C91     C    0.38820   0.38819   0.28444   1.000
    N92     N    0.82569   0.03318   0.56356   1.000
    N93     N    0.00342   0.11044   0.65223   1.000
    N94     N    0.56361   0.82549   0.03317   1.000
    N95     N    0.65221   0.00334   0.11000   1.000
    N96     N    0.03321   0.56369   0.82564   1.000
    N97     N    0.11043   0.65207   0.00336   1.000
    N98     N    0.96682   0.17442   0.43645   1.000
    N99     N    0.88959   0.99660   0.34776   1.000
    N100    N    0.17448   0.43630   0.96682   1.000
    N101    N    0.99668   0.34790   0.88961   1.000
    N102    N    0.43639   0.96679   0.17400   1.000
    N103    N    0.34784   0.88953   0.99662   1.000
    N104    N    0.17432   0.96680   0.43646   1.000
    N105    N    0.99659   0.88953   0.34779   1.000
    N106    N    0.43640   0.17448   0.96685   1.000
    N107    N    0.34780   0.99663   0.88960   1.000
    N108    N    0.96680   0.43628   0.17438   1.000
    N109    N    0.88958   0.34790   0.99666   1.000
    N110    N    0.03319   0.82555   0.56357   1.000
    N111    N    0.11042   0.00338   0.65226   1.000
    N112    N    0.82553   0.56367   0.03300   1.000
    N113    N    0.00333   0.65208   0.11041   1.000
    N114    N    0.56362   0.03318   0.82570   1.000
    N115    N    0.65217   0.11044   0.00340   1.000
    N116    N    0.92582   0.92574   0.56666   1.000
    N117    N    0.68246   0.68238   0.57529   1.000
    N118    N    0.18175   0.18179   0.73618   1.000
    N119    N    0.56674   0.92572   0.92585   1.000
    N120    N    0.57533   0.68242   0.68200   1.000
    N121    N    0.73606   0.18177   0.18170   1.000
    N122    N    0.92577   0.56683   0.92583   1.000
    N123    N    0.68258   0.57542   0.68258   1.000
    N124    N    0.18173   0.73577   0.18170   1.000
    N125    N    0.07419   0.07424   0.43336   1.000
    N126    N    0.31755   0.31759   0.42473   1.000
    N127    N    0.81825   0.81819   0.26384   1.000
    N128    N    0.07424   0.43314   0.07419   1.000
    N129    N    0.31743   0.42456   0.31744   1.000
    N130    N    0.81828   0.26421   0.81832   1.000
    N131    N    0.43327   0.07426   0.07417   1.000
    N132    N    0.42468   0.31756   0.31752   1.000
    N133    N    0.26395   0.81820   0.81832   1.000
    N134    N    0.78398   0.57689   0.57690   1.000
    N135    N    0.57677   0.78370   0.57676   1.000
    N136    N    0.57692   0.57690   0.78401   1.000
    N137    N    0.42325   0.21627   0.42326   1.000
    N138    N    0.21603   0.42309   0.42312   1.000
    N139    N    0.42309   0.42307   0.21601   1.000
    O140    O    0.85168   0.42242   0.64317   1.000
    O141    O    0.82643   0.25145   0.61354   1.000
    O142    O    0.57771   0.14851   0.35683   1.000
    O143    O    0.74863   0.17368   0.38640   1.000
    O144    O    0.35687   0.14850   0.57775   1.000
    O145    O    0.38645   0.17367   0.74864   1.000
    O146    O    0.57759   0.35693   0.14831   1.000
    O147    O    0.74851   0.38646   0.17360   1.000
    O148    O    0.14833   0.57756   0.35685   1.000
    O149    O    0.17358   0.74853   0.38648   1.000
    O150    O    0.85163   0.64305   0.42234   1.000
    O151    O    0.82634   0.61352   0.25145   1.000
    O152    O    0.64311   0.42247   0.85176   1.000
    O153    O    0.61352   0.25149   0.82647   1.000
    O154    O    0.42230   0.85146   0.64319   1.000
    O155    O    0.25138   0.82629   0.61358   1.000
loop_
    _geom_bond_atom_site_label_1
    _geom_bond_atom_site_label_2
    _geom_bond_distance
    _geom_bond_site_symmetry_2
    _ccdc_geom_bond_type
    N97    C78       1.35617      .   S
    N97    C58       1.35382  1_554   S
    N115   C77       1.35648      .   S
    N115   C74       1.35383  1_554   S
    C57    N94       1.34084      .   S
    C57    N95       1.35144  1_565   S
    C57    N119      1.36583  1_554   S
    C72    N112      1.33964      .   S
    C72    N113      1.35414  1_655   S
    C72    N122      1.36586  1_554   S
    H18    N100      1.03092  1_554   S
    H33    N106      1.03091  1_554   S
    N112   H47       1.02896      .   S
    N112   H48       1.02968  1_554   S
    N94    H4        1.02721      .   S
    N94    H5        1.03091  1_554   S
    N131   C62       1.36665  1_545   S
    N131   C66       1.36583  1_554   S
    N128   C68       1.36628  1_455   S
    N128   C61       1.36586  1_554   S
    C62    N102      1.33700      .   S
    C62    N103      1.35383  1_554   S
    C68    N108      1.34087      .   S
    C68    N109      1.35382  1_554   S
    C78    N113      1.35669      .   S
    C78    N124      1.34029      .   S
    C77    N95       1.35400      .   S
    C77    N121      1.34015      .   S
    O146   C67       1.27509      .   S
    O147   C67       1.27288      .   S
    N102   H22       1.02863      .   S
    N102   H23       1.03309  1_565   S
    N108   H37       1.02719      .   S
    N108   H38       1.03118  1_655   S
    H12    N124      1.02894      .   S
    H55    N121      1.02902      .   S
    N121   H7        1.02894      .   S
    N124   H50       1.02901      .   S
    H39    N139      1.03854      .   S
    H24    N139      1.03854      .   S
    C67    C84       1.52613      .   S
    N139   C91       1.33551      .   S
    O151   C71       1.27268      .   S
    H16    N127      1.02896      .   S
    H30    N127      1.02897      .   S
    N127   C79       1.34018      .   S
    C91    N129      1.36375      .   S
    C91    N132      1.36370      .   S
    H41    C84       1.10043      .   S
    C84    C71       1.52620      .   S
    C84    H31       1.10052      .   S
    N129   C90       1.36369      .   S
    N132   C89       1.36378      .   S
    C79    N99       1.35655      .   S
    C79    N105      1.35652      .   S
    C71    O150      1.27512      .   S
    N99    C60       1.35437  1_565   S
    N105   C64       1.35417  1_655   S
    O142   C63       1.27515      .   S
    O148   C69       1.27512      .   S
    O143   C63       1.27291      .   S
    O149   C69       1.27276      .   S
    C90    N138      1.33551      .   S
    C90    N126      1.36372      .   S
    C89    N137      1.33553      .   S
    C89    N126      1.36373      .   S
    H19    N138      1.03850      .   S
    H34    N137      1.03849      .   S
    C60    N125      1.36625  1_655   S
    C60    N98       1.34084      .   S
    C64    N125      1.36666  1_565   S
    C64    N104      1.34083      .   S
    C69    C85       1.52619      .   S
    C63    C82       1.52620      .   S
    N138   H29       1.03856      .   S
    N137   H15       1.03818      .   S
    H13    N98       1.02718      .   S
    H27    N104      1.02717      .   S
    N98    H14       1.03105  1_655   S
    N104   H28       1.03126  1_565   S
    H36    C85       1.10044      .   S
    H21    C82       1.10081      .   S
    C85    H51       1.10050      .   S
    C85    C75       1.52634      .   S
    C82    H8        1.10054      .   S
    C82    C59       1.52632      .   S
    H1     N92       1.03127  1_565   S
    H43    N110      1.03114  1_655   S
    H44    N135      1.03843      .   S
    H2     N134      1.03856      .   S
    N92    H0        1.02719      .   S
    N92    C56       1.34082      .   S
    N110   H42       1.02719      .   S
    N110   C70       1.34083      .   S
    N116   C56       1.36666  1_565   S
    N116   C70       1.36626  1_655   S
    N117   C87       1.36373      .   S
    N117   C86       1.36373      .   S
    N135   H6        1.03818      .   S
    N135   C87       1.33553      .   S
    N134   H49       1.03800      .   S
    N134   C86       1.33550      .   S
    O144   C65       1.27518      .   S
    C75    O155      1.27269      .   S
    C75    O154      1.27515      .   S
    C59    O141      1.27276      .   S
    C59    O140      1.27512      .   S
    C56    N93       1.35417  1_655   S
    C70    N111      1.35436  1_565   S
    C87    N120      1.35731      .   S
    C86    N123      1.36370      .   S
    H46    C83       1.10048      .   S
    N93    C76       1.35652      .   S
    N111   C76       1.35655      .   S
    C65    C83       1.52628      .   S
    C65    O145      1.27268      .   S
    C76    N118      1.34018      .   S
    N120   C88       1.36676      .   S
    N123   C88       1.36374      .   S
    C83    H26       1.10046      .   S
    C83    C73       1.52543      .   S
    C88    N136      1.33551      .   S
    N118   H3        1.02897      .   S
    N118   H45       1.02896      .   S
    H35    N133      1.02950      .   S
    H20    N130      1.02902      .   S
    H10    N96       1.03118  1_655   S
    H53    N114      1.03111  1_565   S
    N136   H54       1.03855      .   S
    N136   H11       1.03854      .   S
    C73    O153      1.27319      .   S
    C73    O152      1.27524      .   S
    N130   H40       1.02894      .   S
    N130   C80       1.31892      .   S
    N133   H25       1.02892      .   S
    N133   C81       1.34014      .   S
    H9     N96       1.02717      .   S
    H52    N114      1.02702      .   S
    N96    C58       1.34087      .   S
    N114   C74       1.34121      .   S
    N107   C81       1.35673      .   S
    N107   C66       1.35460  1_565   S
    N101   C80       1.33759      .   S
    N101   C61       1.35414  1_655   S
    H17    N100      1.02716      .   S
    H32    N106      1.02720      .   S
    C80    N109      1.39635      .   S
    C81    N103      1.35648      .   S
    C58    N122      1.36629  1_455   S
    C74    N119      1.36665  1_545   S
    N100   C61       1.34088      .   S
    N106   C66       1.34084      .   S
