# CIF file generated by openbabel 2.4.90, see http://openbabel.sf.net
data_I
_chemical_name_common ''
_cell_length_a 14.131
_cell_length_b 14.13
_cell_length_c 14.133
_cell_angle_alpha 104.811
_cell_angle_beta 104.76
_cell_angle_gamma 104.833
_space_group_name_H-M_alt 'P 1'
_space_group_name_Hall 'P 1'
loop_
    _symmetry_equiv_pos_as_xyz
    x,y,z
loop_
    _atom_site_label
    _atom_site_type_symbol
    _atom_site_fract_x
    _atom_site_fract_y
    _atom_site_fract_z
    _atom_site_occupancy
    Zr0     Zr   0.78704   0.78700   0.52107   1.000
    Zr1     Zr   0.52125   0.78706   0.78711   1.000
    Zr2     Zr   0.78721   0.52154   0.78723   1.000
    Zr3     Zr   0.21297   0.21297   0.47895   1.000
    Zr4     Zr   0.21280   0.47843   0.21279   1.000
    Zr5     Zr   0.47876   0.21291   0.21291   1.000
    Zr6     Zr   0.99999   0.27538   0.72466   1.000
    Zr7     Zr   0.72477   0.00001   0.27521   1.000
    Zr8     Zr   0.27544   0.72453   0.40000   1.000
    Zr9     Zr   0.00002   0.72459   0.27536   1.000
    Zr10    Zr   0.27524   0.99999   0.72481   1.000
    Zr11    Zr   0.72456   0.27544   0.99998   1.000
    N12     N    0.38291   0.98589   0.98585   1.000
    O13     O    0.41946   0.06474   0.06470   1.000
    O14     O    0.34722   0.99210   0.89653   1.000
    N15     N    0.27470   0.50001   0.72537   1.000
    O16     O    0.18077   0.41546   0.73099   1.000
    N17     N    0.01410   0.61705   0.01410   1.000
    O18     O    0.93529   0.58062   0.93531   1.000
    O19     O    0.00789   0.65269   0.10349   1.000
    N20     N    0.98586   0.98586   0.38291   1.000
    O21     O    0.89652   0.99208   0.34720   1.000
    O22     O    0.99208   0.89646   0.34724   1.000
    O23     O    0.06472   0.06473   0.41953   1.000
    N24     N    0.98592   0.38293   0.98570   1.000
    O25     O    0.06472   0.41936   0.06460   1.000
    O26     O    0.99213   0.34728   0.89642   1.000
    O27     O    0.89649   0.34730   0.99201   1.000
    N28     N    0.35442   0.35444   0.35442   1.000
    O29     O    0.30984   0.30986   0.40313   1.000
    O30     O    0.30977   0.40297   0.30977   1.000
    O31     O    0.40307   0.30984   0.30982   1.000
    N32     N    0.27459   0.72531   0.49996   1.000
    O33     O    0.18069   0.73094   0.41544   1.000
    O34     O    0.24955   0.73092   0.44660   1.000
    O35     O    0.24324   0.68818   0.43919   1.000
    O36     O    0.25562   0.71231   0.45214   1.000
    O37     O    0.26895   0.81923   0.58458   1.000
    N38     N    0.61710   0.01409   0.01412   1.000
    O39     O    0.58055   0.93524   0.93530   1.000
    O40     O    0.65279   0.00788   0.10336   1.000
    O41     O    0.65273   0.10351   0.00790   1.000
    N42     N    0.49994   0.72528   0.27446   1.000
    O43     O    0.58455   0.81922   0.26888   1.000
    N44     N    0.01415   0.01411   0.61711   1.000
    O45     O    0.93529   0.93524   0.58049   1.000
    O46     O    0.00793   0.10351   0.65278   1.000
    O47     O    0.10349   0.00790   0.65282   1.000
    N48     N    0.72543   0.27467   0.50004   1.000
    O49     O    0.81932   0.26904   0.58457   1.000
    O50     O    0.73106   0.18076   0.41542   1.000
    N51     N    0.64559   0.64554   0.64555   1.000
    O52     O    0.69017   0.69012   0.59687   1.000
    O53     O    0.59694   0.69014   0.69005   1.000
    O54     O    0.69024   0.59701   0.69023   1.000
    N55     N    0.50007   0.27470   0.72545   1.000
    O56     O    0.58456   0.26908   0.81934   1.000
    O57     O    0.41546   0.18076   0.73109   1.000
    N58     N    0.72531   0.49997   0.27464   1.000
    O59     O    0.73092   0.41546   0.18071   1.000
    O60     O    0.81924   0.58451   0.26902   1.000
loop_
    _geom_bond_atom_site_label_1
    _geom_bond_atom_site_label_2
    _geom_bond_distance
    _geom_bond_site_symmetry_2
    _ccdc_geom_bond_type
    N12    O13       1.23577  1_566   S
    Zr5    O13       2.33212      .   S
    N12    O14       1.26912      .   S
    Zr10   O14       2.42394      .   S
    N15    O16       1.57664      .   S
    Zr6    O16       2.76687  1_655   S
    N17    O18       1.23549  1_454   S
    Zr2    O18       2.33166      .   S
    N17    O19       1.26937      .   S
    Zr9    O19       2.42452      .   S
    N20    O21       1.26929      .   S
    Zr7    O21       2.42429  1_545   S
    N20    O22       1.26948      .   S
    Zr9    O22       2.42460  1_455   S
    N20    O23       1.23574  1_665   S
    Zr3    O23       2.33215      .   S
    N24    O25       1.23637  1_656   S
    Zr4    O25       2.33256      .   S
    N24    O26       1.26796      .   S
    Zr6    O26       2.42312      .   S
    N24    O27       1.26998      .   S
    Zr11   O27       2.42516      .   S
    N28    O29       1.22759      .   S
    Zr3    O29       2.33113      .   S
    N28    O30       1.22738      .   S
    Zr4    O30       2.33057      .   S
    N28    O31       1.22748      .   S
    Zr5    O31       2.33084      .   S
    N32    O33       1.57752      .   S
    Zr9    O33       2.76809      .   S
    N32    O34       0.78049      .   S
    Zr8    O34       0.82773      .   S
    N32    O35       0.81603      .   S
    Zr8    O35       0.96540      .   S
    N32    O36       0.61763      .   S
    Zr8    O36       0.89256      .   S
    N32    O37       1.57760      .   S
    Zr10   O37       2.76871      .   S
    N38    O39       1.23556  1_544   S
    Zr1    O39       2.33191      .   S
    N38    O40       1.26806      .   S
    Zr7    O40       2.42548      .   S
    N38    O41       1.26943      .   S
    Zr11   O41       2.42467  1_556   S
    N42    O43       1.57693      .   S
    Zr7    O43       2.76790  1_545   S
    N44    O45       1.23574  1_445   S
    Zr0    O45       2.33214      .   S
    N44    O46       1.26948      .   S
    Zr6    O46       2.42459  1_655   S
    N44    O47       1.26923      .   S
    Zr10   O47       2.42410  1_565   S
    N48    O49       1.57757      .   S
    Zr6    O49       2.76814      .   S
    N48    O50       1.57755      .   S
    Zr7    O50       2.76834      .   S
    N51    O52       1.22734      .   S
    Zr0    O52       2.33088      .   S
    N51    O53       1.22672      .   S
    Zr1    O53       2.33200      .   S
    N51    O54       1.22755      .   S
    Zr2    O54       2.33075      .   S
    N55    O56       1.57719      .   S
    Zr11   O56       2.76734      .   S
    N55    O57       1.57726      .   S
    Zr10   O57       2.76801  1_565   S
    N58    O59       1.57670      .   S
    Zr11   O59       2.76677  1_556   S
    N58    O60       1.57659      .   S
    Zr9    O60       2.76684  1_455   S
