# CIF file generated by openbabel 2.4.90, see http://openbabel.sf.net
data_I
_chemical_name_common ''
_cell_length_a 8.919
_cell_length_b 10.1035
_cell_length_c 15.051
_cell_angle_alpha 90.021
_cell_angle_beta 90.193
_cell_angle_gamma 90.165
_space_group_name_H-M_alt 'P 1'
_space_group_name_Hall 'P 1'
loop_
    _symmetry_equiv_pos_as_xyz
    x,y,z
loop_
    _atom_site_label
    _atom_site_type_symbol
    _atom_site_fract_x
    _atom_site_fract_y
    _atom_site_fract_z
    _atom_site_occupancy
    Zr0     Zr   0.68230   0.05949   0.39126   1.000
    Zr1     Zr   0.31543   0.44010   0.89161   1.000
    Zr2     Zr   0.18045   0.94002   0.10971   1.000
    Zr3     Zr   0.81461   0.55997   0.61118   1.000
    N4      N    0.22153   0.23321   0.80209   1.000
    O5      O    0.19597   0.11347   0.92403   1.000
    O6      O    0.03742   0.36382   0.73326   1.000
    N7      N    0.72295   0.76716   0.70037   1.000
    O8      O    0.53875   0.63640   0.76941   1.000
    O9      O    0.69770   0.88644   0.57772   1.000
    N10     N    0.27270   0.73300   0.19906   1.000
    O11     O    0.29950   0.61375   0.07708   1.000
    O12     O    0.45744   0.86349   0.26865   1.000
    N13     N    0.77506   0.26708   0.30234   1.000
    O14     O    0.80040   0.38633   0.42505   1.000
    O15     O    0.95810   0.13640   0.23249   1.000
    O16     O    0.23592   0.80668   0.16055   1.000
    O17     O    0.73800   0.19316   0.34069   1.000
    O18     O    0.75961   0.69344   0.66190   1.000
    O19     O    0.25903   0.30678   0.84068   1.000
loop_
    _geom_bond_atom_site_label_1
    _geom_bond_atom_site_label_2
    _geom_bond_distance
    _geom_bond_site_symmetry_2
    _ccdc_geom_bond_type
    N4     O5        2.21062      .   S
    Zr2    O5        3.30241  1_564   S
    N4     O6        2.34799      .   S
    Zr3    O6        3.35467  1_655   S
    N7     O8        2.35040      .   S
    Zr1    O8        3.35974      .   S
    N7     O9        2.21615      .   S
    Zr0    O9        3.30966  1_545   S
    N10    O11       2.20964      .   S
    Zr1    O11       3.30020  1_556   S
    N10    O12       2.35048      .   S
    Zr0    O12       3.36137  1_545   S
    N13    O14       2.21531      .   S
    Zr3    O14       3.30681      .   S
    N13    O15       2.35304      .   S
    Zr2    O15       3.36590  1_465   S
    N10    O16       0.99911      .   S
    Zr2    O16       1.62694      .   S
    N13    O17       1.00013      .   S
    Zr0    O17       1.62779      .   S
    N7     O18       0.99964      .   S
    Zr3    O18       1.62710      .   S
    N4     O19       0.99936      .   S
    Zr1    O19       1.62724      .   S
