# CIF file generated by openbabel 2.4.90, see http://openbabel.sf.net
data_I
_chemical_name_common ''
_cell_length_a 18.42
_cell_length_b 18.43
_cell_length_c 18.426
_cell_angle_alpha 60.177
_cell_angle_beta 60.213
_cell_angle_gamma 60.202
_space_group_name_H-M_alt 'P 1'
_space_group_name_Hall 'P 1'
loop_
    _symmetry_equiv_pos_as_xyz
    x,y,z
loop_
    _atom_site_label
    _atom_site_type_symbol
    _atom_site_fract_x
    _atom_site_fract_y
    _atom_site_fract_z
    _atom_site_occupancy
    C0      C    0.88036   0.70666   0.20658   1.000
    C1      C    0.29330   0.11972   0.79316   1.000
    C2      C    0.11962   0.29333   0.79341   1.000
    C3      C    0.70669   0.88027   0.20683   1.000
    C4      C    0.70659   0.70682   0.38029   1.000
    C5      C    0.70633   0.70609   0.20615   1.000
    C6      C    0.29340   0.29317   0.61970   1.000
    C7      C    0.29365   0.29390   0.79385   1.000
    C8      C    0.54978   0.06813   0.33572   1.000
    C9      C    0.54681   0.83572   0.56816   1.000
    C10     C    0.54799   0.06753   0.04940   1.000
    C11     C    0.54813   0.83576   0.04680   1.000
    C12     C    0.06817   0.83573   0.04820   1.000
    C13     C    0.93188   0.45024   0.66420   1.000
    C14     C    0.16430   0.45299   0.43195   1.000
    C15     C    0.93218   0.45207   0.95072   1.000
    C16     C    0.16429   0.45184   0.95308   1.000
    C17     C    0.16431   0.93197   0.95160   1.000
    C18     C    0.45021   0.93186   0.66427   1.000
    C19     C    0.45318   0.16427   0.43183   1.000
    C20     C    0.45200   0.93246   0.95052   1.000
    C21     C    0.45186   0.16423   0.95319   1.000
    C22     C    0.93182   0.16426   0.95177   1.000
    C23     C    0.06810   0.54975   0.33573   1.000
    C24     C    0.83568   0.54700   0.56804   1.000
    C25     C    0.06781   0.54792   0.04927   1.000
    C26     C    0.83570   0.54815   0.04691   1.000
    C27     C    0.83568   0.06802   0.04839   1.000
    C28     C    0.54744   0.54745   0.33574   1.000
    C29     C    0.54865   0.54881   0.56754   1.000
    C30     C    0.45254   0.45254   0.66425   1.000
    C31     C    0.45133   0.45118   0.43245   1.000
    C32     C    0.61130   0.88907   0.38912   1.000
    C33     C    0.55386   0.94638   0.44640   1.000
    C34     C    0.52758   0.03904   0.40760   1.000
    C35     C    0.52590   0.90769   0.53906   1.000
    C36     C    0.61091   0.88858   0.11100   1.000
    C37     C    0.55360   0.94609   0.05367   1.000
    C38     C    0.52658   0.03872   0.02741   1.000
    C39     C    0.52666   0.90771   0.02591   1.000
    C40     C    0.03907   0.90769   0.02670   1.000
    C41     C    0.11096   0.38855   0.61090   1.000
    C42     C    0.05363   0.44609   0.55365   1.000
    C43     C    0.96095   0.47242   0.59230   1.000
    C44     C    0.09233   0.47396   0.46000   1.000
    C45     C    0.11121   0.38917   0.88904   1.000
    C46     C    0.05379   0.44642   0.94637   1.000
    C47     C    0.96112   0.47346   0.97268   1.000
    C48     C    0.09232   0.47333   0.97400   1.000
    C49     C    0.09233   0.96100   0.97300   1.000
    C50     C    0.38868   0.11092   0.61087   1.000
    C51     C    0.44613   0.05361   0.55359   1.000
    C52     C    0.47241   0.96095   0.59231   1.000
    C53     C    0.47408   0.09230   0.46093   1.000
    C54     C    0.38907   0.11142   0.88890   1.000
    C55     C    0.44640   0.05390   0.94631   1.000
    C56     C    0.47340   0.96127   0.97258   1.000
    C57     C    0.47332   0.09228   0.97408   1.000
    C58     C    0.96091   0.09230   0.97330   1.000
    C59     C    0.88903   0.61142   0.38901   1.000
    C60     C    0.94635   0.55392   0.44630   1.000
    C61     C    0.03904   0.52756   0.40769   1.000
    C62     C    0.90766   0.52603   0.53900   1.000
    C63     C    0.88878   0.61082   0.11095   1.000
    C64     C    0.94619   0.55358   0.05361   1.000
    C65     C    0.03887   0.52653   0.02732   1.000
    C66     C    0.90766   0.52665   0.02599   1.000
    C67     C    0.90766   0.03899   0.02680   1.000
    C68     C    0.61090   0.61099   0.38858   1.000
    C69     C    0.55359   0.55366   0.44608   1.000
    C70     C    0.52627   0.52628   0.40770   1.000
    C71     C    0.52694   0.52704   0.53872   1.000
    C72     C    0.88909   0.88899   0.11128   1.000
    C73     C    0.94639   0.94633   0.05384   1.000
    C74     C    0.38908   0.38900   0.61141   1.000
    C75     C    0.44640   0.44634   0.55391   1.000
    C76     C    0.47371   0.47371   0.59230   1.000
    C77     C    0.47304   0.47295   0.46127   1.000
    C78     C    0.11089   0.11100   0.88873   1.000
    C79     C    0.05360   0.05366   0.94614   1.000
    C80     C    0.63314   0.80530   0.42870   1.000
    C81     C    0.63380   0.92863   0.30535   1.000
    C82     C    0.63310   0.80484   0.13250   1.000
    C83     C    0.63291   0.92804   0.13371   1.000
    C84     C    0.92868   0.80524   0.13315   1.000
    C85     C    0.19473   0.36640   0.57144   1.000
    C86     C    0.07138   0.36642   0.69474   1.000
    C87     C    0.19498   0.36727   0.86717   1.000
    C88     C    0.07168   0.36689   0.86671   1.000
    C89     C    0.19466   0.07146   0.86635   1.000
    C90     C    0.36685   0.19469   0.57100   1.000
    C91     C    0.36619   0.07137   0.69464   1.000
    C92     C    0.36688   0.19516   0.86743   1.000
    C93     C    0.36708   0.07195   0.86629   1.000
    C94     C    0.07131   0.19475   0.86685   1.000
    C95     C    0.80526   0.63358   0.42855   1.000
    C96     C    0.92860   0.63357   0.30525   1.000
    C97     C    0.80500   0.63272   0.13282   1.000
    C98     C    0.92831   0.63309   0.13329   1.000
    C99     C    0.80532   0.92853   0.13365   1.000
    C100    C    0.74992   0.74986   0.24987   1.000
    C101    C    0.63300   0.63353   0.42806   1.000
    C102    C    0.63298   0.63265   0.30482   1.000
    C103    C    0.25006   0.25013   0.75012   1.000
    C104    C    0.36698   0.36645   0.57193   1.000
    C105    C    0.36701   0.36734   0.69517   1.000
    O106    O    0.53739   0.87174   0.03635   1.000
    O107    O    0.54013   0.92690   0.03979   1.000
    O108    O    0.50003   0.93449   0.99924   1.000
    O109    O    0.87168   0.53740   0.03645   1.000
    O110    O    0.92693   0.54012   0.03980   1.000
    O111    O    0.93439   0.50005   0.99933   1.000
    O112    O    0.05362   0.87171   0.03745   1.000
    O113    O    0.99273   0.92701   0.04027   1.000
    O114    O    0.06570   0.93435   0.99985   1.000
    O115    O    0.87167   0.05351   0.03759   1.000
    O116    O    0.92702   0.99266   0.04032   1.000
    O117    O    0.93428   0.06564   0.00005   1.000
    O118    O    0.05334   0.53723   0.03829   1.000
    O119    O    0.99253   0.54006   0.04046   1.000
    O120    O    0.06559   0.49993   0.00066   1.000
    O121    O    0.53728   0.05313   0.03841   1.000
    O122    O    0.54009   0.99240   0.04054   1.000
    O123    O    0.49995   0.06550   0.00074   1.000
    O124    O    0.91748   0.58220   0.08228   1.000
    O125    O    0.58225   0.91733   0.08233   1.000
    O126    O    0.91774   0.91766   0.08256   1.000
    O127    O    0.84689   0.62177   0.12188   1.000
    O128    O    0.90854   0.62196   0.12212   1.000
    O129    O    0.62201   0.84671   0.12175   1.000
    O130    O    0.62191   0.90831   0.12235   1.000
    O131    O    0.90889   0.84712   0.12221   1.000
    O132    O    0.84721   0.90876   0.12247   1.000
    O133    O    0.66972   0.75546   0.16932   1.000
    O134    O    0.75567   0.66940   0.16948   1.000
    O135    O    0.90452   0.75595   0.16986   1.000
    O136    O    0.90434   0.66987   0.16993   1.000
    O137    O    0.75600   0.90440   0.17024   1.000
    O138    O    0.66980   0.90415   0.17027   1.000
    O139    O    0.66965   0.66937   0.25549   1.000
    O140    O    0.90448   0.67011   0.25591   1.000
    O141    O    0.72830   0.81507   0.22835   1.000
    O142    O    0.67024   0.90445   0.25609   1.000
    O143    O    0.72825   0.72834   0.31508   1.000
    O144    O    0.62194   0.62182   0.34670   1.000
    O145    O    0.90881   0.62250   0.34713   1.000
    O146    O    0.62255   0.90885   0.34723   1.000
    O147    O    0.53868   0.05358   0.37166   1.000
    O148    O    0.05357   0.53866   0.37171   1.000
    O149    O    0.53686   0.53686   0.37172   1.000
    O150    O    0.66980   0.67018   0.40417   1.000
    O151    O    0.75592   0.67020   0.40442   1.000
    O152    O    0.66986   0.75606   0.40449   1.000
    O153    O    0.62195   0.62226   0.40832   1.000
    O154    O    0.58224   0.58232   0.41733   1.000
    O155    O    0.84714   0.62250   0.40878   1.000
    O156    O    0.91769   0.58267   0.41765   1.000
    O157    O    0.62222   0.84719   0.40891   1.000
    O158    O    0.58258   0.91772   0.41776   1.000
    O159    O    0.54072   0.99271   0.42700   1.000
    O160    O    0.50083   0.06567   0.43426   1.000
    O161    O    0.99270   0.54074   0.42699   1.000
    O162    O    0.06568   0.50076   0.43384   1.000
    O163    O    0.53993   0.53997   0.42689   1.000
    O164    O    0.49966   0.49961   0.43448   1.000
    O165    O    0.46363   0.12829   0.44638   1.000
    O166    O    0.12831   0.46348   0.44597   1.000
    O167    O    0.46219   0.46207   0.44686   1.000
    O168    O    0.54027   0.54035   0.49240   1.000
    O169    O    0.92701   0.53997   0.49265   1.000
    O170    O    0.53988   0.92703   0.49273   1.000
    O171    O    0.07298   0.46003   0.50682   1.000
    O172    O    0.46010   0.07296   0.50726   1.000
    O173    O    0.45972   0.45964   0.50759   1.000
    O174    O    0.53780   0.53792   0.55313   1.000
    O175    O    0.50033   0.50038   0.56551   1.000
    O176    O    0.87167   0.53651   0.55352   1.000
    O177    O    0.93430   0.49923   0.56565   1.000
    O178    O    0.53636   0.87170   0.55361   1.000
    O179    O    0.49916   0.93432   0.56568   1.000
    O180    O    0.45927   0.00728   0.57295   1.000
    O181    O    0.41740   0.08227   0.58223   1.000
    O182    O    0.00729   0.45926   0.57297   1.000
    O183    O    0.08230   0.41732   0.58227   1.000
    O184    O    0.46005   0.46002   0.57310   1.000
    O185    O    0.41774   0.41767   0.58266   1.000
    O186    O    0.37777   0.15280   0.59093   1.000
    O187    O    0.33013   0.24393   0.59535   1.000
    O188    O    0.15284   0.37748   0.59117   1.000
    O189    O    0.24406   0.32979   0.59557   1.000
    O190    O    0.37803   0.37773   0.59167   1.000
    O191    O    0.33019   0.32981   0.59581   1.000
    O192    O    0.94642   0.46133   0.62825   1.000
    O193    O    0.46313   0.46313   0.62827   1.000
    O194    O    0.46131   0.94641   0.62829   1.000
    O195    O    0.37743   0.09114   0.65275   1.000
    O196    O    0.09117   0.37749   0.65282   1.000
    O197    O    0.37805   0.37817   0.65329   1.000
    O198    O    0.27173   0.27165   0.68491   1.000
    O199    O    0.32974   0.09554   0.74390   1.000
    O200    O    0.09550   0.32988   0.74407   1.000
    O201    O    0.33033   0.33062   0.74451   1.000
    O202    O    0.27168   0.18492   0.77164   1.000
    O203    O    0.33019   0.09584   0.82972   1.000
    O204    O    0.24398   0.09559   0.82975   1.000
    O205    O    0.09565   0.33011   0.83006   1.000
    O206    O    0.09546   0.24404   0.83013   1.000
    O207    O    0.24432   0.33058   0.83051   1.000
    O208    O    0.33026   0.24453   0.83064   1.000
    O209    O    0.37807   0.09168   0.87759   1.000
    O210    O    0.15278   0.09123   0.87754   1.000
    O211    O    0.09144   0.37803   0.87787   1.000
    O212    O    0.09110   0.15287   0.87779   1.000
    O213    O    0.15310   0.37822   0.87810   1.000
    O214    O    0.37797   0.15329   0.87816   1.000
    O215    O    0.08225   0.08233   0.91743   1.000
    O216    O    0.41774   0.08266   0.91760   1.000
    O217    O    0.08250   0.41779   0.91770   1.000
    O218    O    0.07296   0.00733   0.95957   1.000
    O219    O    0.00725   0.07298   0.95972   1.000
    O220    O    0.45990   0.00759   0.95944   1.000
    O221    O    0.45986   0.07309   0.96019   1.000
    O222    O    0.00746   0.45994   0.95952   1.000
    O223    O    0.07306   0.45988   0.96018   1.000
    O224    O    0.46270   0.94686   0.96155   1.000
    O225    O    0.94665   0.46276   0.96170   1.000
    O226    O    0.12832   0.94648   0.96230   1.000
    O227    O    0.94636   0.12828   0.96254   1.000
    O228    O    0.12831   0.46259   0.96354   1.000
    O229    O    0.46259   0.12825   0.96363   1.000
    O230    O    0.81514   0.72826   0.22822   1.000
    O231    O    0.72813   0.72798   0.22801   1.000
    O232    O    0.18484   0.27173   0.77176   1.000
    O233    O    0.27186   0.27201   0.77198   1.000
loop_
    _geom_bond_atom_site_label_1
    _geom_bond_atom_site_label_2
    _geom_bond_distance
    _geom_bond_site_symmetry_2
    _ccdc_geom_bond_type
    C39    O106      0.54432      .   S
    C11    O106      0.54432      .   S
    C39    O107      0.70160      .   S
    C37    O107      0.70160      .   S
    C39    O108      0.69513  1_554   S
    C56    O108      0.69513      .   S
    C66    O109      0.54432      .   S
    C26    O109      0.54432      .   S
    C66    O110      0.70161      .   S
    C64    O110      0.70161      .   S
    C66    O111      0.69519  1_554   S
    C47    O111      0.69519      .   S
    C40    O112      0.54431      .   S
    C12    O112      0.54431      .   S
    C40    O113      0.70173  1_455   S
    C73    O113      0.70173      .   S
    C40    O114      0.69520  1_554   S
    C49    O114      0.69520      .   S
    C67    O115      0.54430      .   S
    C27    O115      0.54430      .   S
    C67    O116      0.70166  1_545   S
    C73    O116      0.70166      .   S
    C67    O117      0.69519      .   S
    C58    O117      0.69519  1_556   S
    C65    O118      0.54425      .   S
    C25    O118      0.54425      .   S
    C65    O119      0.70179  1_455   S
    C64    O119      0.70179      .   S
    C65    O120      0.69525      .   S
    C48    O120      0.69525  1_556   S
    C38    O121      0.54375      .   S
    C10    O121      0.54375      .   S
    C38    O122      0.70170  1_545   S
    C37    O122      0.70170      .   S
    C38    O123      0.69513      .   S
    C57    O123      0.69513  1_556   S
    C64    O124      0.74786      .   S
    C63    O124      0.74786      .   S
    C37    O125      0.74768      .   S
    C36    O125      0.74768      .   S
    C73    O126      0.74783      .   S
    C72    O126      0.74783      .   S
    C63    O127      0.63864      .   S
    C97    O127      0.63864      .   S
    C63    O128      0.63861      .   S
    C98    O128      0.63861      .   S
    C36    O129      0.63868      .   S
    C82    O129      0.63868      .   S
    C36    O130      0.63879      .   S
    C83    O130      0.63879      .   S
    C72    O131      0.63858      .   S
    C84    O131      0.63858      .   S
    C72    O132      0.63858      .   S
    C99    O132      0.63858      .   S
    C82    O133      0.98685      .   S
    C5     O133      0.98685      .   S
    C97    O134      0.98645      .   S
    C5     O134      0.98645      .   S
    C84    O135      0.98612      .   S
    C0     O135      0.98612      .   S
    C98    O136      0.98587      .   S
    C0     O136      0.98587      .   S
    C99    O137      0.98606      .   S
    C3     O137      0.98606      .   S
    C83    O138      0.98586      .   S
    C3     O138      0.98586      .   S
    C5     O139      0.98649      .   S
    C102   O139      0.98649      .   S
    C0     O140      0.98605      .   S
    C96    O140      0.98605      .   S
    C3     O141      0.98346      .   S
    C100   O141      0.98346      .   S
    C3     O142      0.98623      .   S
    C81    O142      0.98623      .   S
    C100   O143      0.98346      .   S
    C4     O143      0.98346      .   S
    C102   O144      0.63868      .   S
    C68    O144      0.63868      .   S
    C96    O145      0.63861      .   S
    C59    O145      0.63861      .   S
    C81    O146      0.63860      .   S
    C32    O146      0.63860      .   S
    C8     O147      0.54368      .   S
    C34    O147      0.54368      .   S
    C23    O148      0.54427      .   S
    C61    O148      0.54427      .   S
    C28    O149      0.54437      .   S
    C70    O149      0.54437      .   S
    C4     O150      0.98586      .   S
    C101   O150      0.98586      .   S
    C4     O151      0.98611      .   S
    C95    O151      0.98611      .   S
    C4     O152      0.98631      .   S
    C80    O152      0.98631      .   S
    C68    O153      0.63850      .   S
    C101   O153      0.63850      .   S
    C68    O154      0.74789      .   S
    C69    O154      0.74789      .   S
    C59    O155      0.63860      .   S
    C95    O155      0.63860      .   S
    C59    O156      0.74751      .   S
    C60    O156      0.74751      .   S
    C32    O157      0.63862      .   S
    C80    O157      0.63862      .   S
    C32    O158      0.74792      .   S
    C33    O158      0.74792      .   S
    C34    O159      0.70175  1_545   S
    C33    O159      0.70175      .   S
    C34    O160      0.69576      .   S
    C53    O160      0.69576      .   S
    C61    O161      0.70170  1_455   S
    C60    O161      0.70170      .   S
    C61    O162      0.68876      .   S
    C44    O162      0.68876      .   S
    C70    O163      0.70153      .   S
    C69    O163      0.70153      .   S
    C70    O164      0.69518      .   S
    C77    O164      0.69518      .   S
    C19    O165      0.54431      .   S
    C53    O165      0.54431      .   S
    C14    O166      0.54380      .   S
    C44    O166      0.54380      .   S
    C31    O167      0.54429      .   S
    C77    O167      0.54429      .   S
    C69    O168      0.70167      .   S
    C71    O168      0.70167      .   S
    C60    O169      0.70197      .   S
    C62    O169      0.70197      .   S
    C33    O170      0.70163      .   S
    C35    O170      0.70163      .   S
    C44    O171      0.70884      .   S
    C42    O171      0.70884      .   S
    C53    O172      0.70163      .   S
    C51    O172      0.70163      .   S
    C77    O173      0.70167      .   S
    C75    O173      0.70167      .   S
    C71    O174      0.54429      .   S
    C29    O174      0.54429      .   S
    C71    O175      0.69519      .   S
    C76    O175      0.69519      .   S
    C62    O176      0.54430      .   S
    C24    O176      0.54430      .   S
    C62    O177      0.69515      .   S
    C43    O177      0.69515      .   S
    C35    O178      0.54431      .   S
    C9     O178      0.54431      .   S
    C35    O179      0.69524      .   S
    C52    O179      0.69524      .   S
    C51    O180      0.70169      .   S
    C52    O180      0.70169  1_565   S
    C51    O181      0.74792      .   S
    C50    O181      0.74792      .   S
    C42    O182      0.70173      .   S
    C43    O182      0.70173  1_655   S
    C42    O183      0.74725      .   S
    C41    O183      0.74725      .   S
    C75    O184      0.70160      .   S
    C76    O184      0.70160      .   S
    C75    O185      0.74791      .   S
    C74    O185      0.74791      .   S
    C90    O186      0.63895      .   S
    C50    O186      0.63895      .   S
    C90    O187      0.98782      .   S
    C6     O187      0.98782      .   S
    C85    O188      0.63850      .   S
    C41    O188      0.63850      .   S
    C85    O189      0.98612      .   S
    C6     O189      0.98612      .   S
    C104   O190      0.63850      .   S
    C74    O190      0.63850      .   S
    C104   O191      0.98587      .   S
    C6     O191      0.98587      .   S
    C43    O192      0.54384      .   S
    C13    O192      0.54384      .   S
    C76    O193      0.54429      .   S
    C30    O193      0.54429      .   S
    C52    O194      0.54426      .   S
    C18    O194      0.54426      .   S
    C50    O195      0.63860      .   S
    C91    O195      0.63860      .   S
    C41    O196      0.63918      .   S
    C86    O196      0.63918      .   S
    C74    O197      0.63868      .   S
    C105   O197      0.63868      .   S
    C6     O198      0.98346      .   S
    C103   O198      0.98346      .   S
    C91    O199      0.98623      .   S
    C1     O199      0.98623      .   S
    C86    O200      0.98605      .   S
    C2     O200      0.98605      .   S
    C105   O201      0.98651      .   S
    C7     O201      0.98651      .   S
    C103   O202      0.98346      .   S
    C1     O202      0.98346      .   S
    C1     O203      0.98591      .   S
    C93    O203      0.98591      .   S
    C1     O204      0.98605      .   S
    C89    O204      0.98605      .   S
    C2     O205      0.98593      .   S
    C88    O205      0.98593      .   S
    C2     O206      0.98612      .   S
    C94    O206      0.98612      .   S
    C7     O207      0.98638      .   S
    C87    O207      0.98638      .   S
    C7     O208      0.98646      .   S
    C92    O208      0.98646      .   S
    C93    O209      0.63806      .   S
    C54    O209      0.63806      .   S
    C89    O210      0.63859      .   S
    C78    O210      0.63859      .   S
    C88    O211      0.63852      .   S
    C45    O211      0.63852      .   S
    C94    O212      0.63858      .   S
    C78    O212      0.63858      .   S
    C87    O213      0.63864      .   S
    C45    O213      0.63864      .   S
    C92    O214      0.63872      .   S
    C54    O214      0.63872      .   S
    C78    O215      0.74782      .   S
    C79    O215      0.74782      .   S
    C54    O216      0.74835      .   S
    C55    O216      0.74835      .   S
    C45    O217      0.74790      .   S
    C46    O217      0.74790      .   S
    C79    O218      0.70166      .   S
    C49    O218      0.70166  1_565   S
    C79    O219      0.70173      .   S
    C58    O219      0.70173  1_655   S
    C55    O220      0.70171      .   S
    C56    O220      0.70171  1_565   S
    C55    O221      0.70155      .   S
    C57    O221      0.70155      .   S
    C46    O222      0.70179      .   S
    C47    O222      0.70179  1_655   S
    C46    O223      0.70160      .   S
    C48    O223      0.70160      .   S
    C20    O224      0.54424      .   S
    C56    O224      0.54424      .   S
    C15    O225      0.54431      .   S
    C47    O225      0.54431      .   S
    C17    O226      0.54429      .   S
    C49    O226      0.54429      .   S
    C22    O227      0.54431      .   S
    C58    O227      0.54431      .   S
    C16    O228      0.54432      .   S
    C48    O228      0.54432      .   S
    C21    O229      0.54433      .   S
    C57    O229      0.54433      .   S
    C100   O230      0.98352      .   S
    C0     O230      0.98352      .   S
    C100   O231      0.98456      .   S
    C5     O231      0.98456      .   S
    C103   O232      0.98353      .   S
    C2     O232      0.98353      .   S
    C103   O233      0.98462      .   S
    C7     O233      0.98462      .   S
