# CIF file generated by openbabel 2.4.90, see http://openbabel.sf.net
data_I
_chemical_name_common ''
_cell_length_a 18.42
_cell_length_b 18.43
_cell_length_c 18.426
_cell_angle_alpha 60.177
_cell_angle_beta 60.213
_cell_angle_gamma 60.202
_space_group_name_H-M_alt 'P 1'
_space_group_name_Hall 'P 1'
loop_
    _symmetry_equiv_pos_as_xyz
    x,y,z
loop_
    _atom_site_label
    _atom_site_type_symbol
    _atom_site_fract_x
    _atom_site_fract_y
    _atom_site_fract_z
    _atom_site_occupancy
    Zr0     Zr   0.88036   0.70666   0.20658   1.000
    Zr1     Zr   0.29330   0.11972   0.79316   1.000
    Zr2     Zr   0.11962   0.29333   0.79341   1.000
    Zr3     Zr   0.70669   0.88027   0.20683   1.000
    Zr4     Zr   0.70659   0.70682   0.38029   1.000
    Zr5     Zr   0.70633   0.70609   0.20615   1.000
    Zr6     Zr   0.29340   0.29317   0.61970   1.000
    Zr7     Zr   0.29365   0.29390   0.79385   1.000
    N8      N    0.99999   0.49999   1.00000   1.000
    O9      O    0.04782   0.41505   0.91503   1.000
    O10     O    0.87783   0.58470   0.08474   1.000
    O11     O    0.12215   0.41529   0.91525   1.000
    O12     O    0.95216   0.58493   0.08497   1.000
    N13     N    0.49999   1.00000   0.49997   1.000
    O14     O    0.58493   0.87803   0.45223   1.000
    O15     O    0.41506   0.12196   0.54766   1.000
    O16     O    0.58512   0.95222   0.37803   1.000
    O17     O    0.41487   0.04777   0.62194   1.000
    N18     N    0.49999   0.49999   0.50000   1.000
    O19     O    0.58482   0.58468   0.37774   1.000
    O20     O    0.58489   0.58509   0.45209   1.000
    O21     O    0.41516   0.41531   0.62225   1.000
    O22     O    0.41509   0.41490   0.54791   1.000
    N23     N    0.99999   0.99999   0.99998   1.000
    O24     O    0.12199   0.04779   0.91487   1.000
    O25     O    0.95226   0.87797   0.08492   1.000
    O26     O    0.04773   0.12202   0.91506   1.000
    O27     O    0.87800   0.95220   0.08511   1.000
    N28     N    0.99999   0.49999   0.49992   1.000
    O29     O    0.87796   0.58510   0.45217   1.000
    O30     O    0.04775   0.41493   0.62200   1.000
    O31     O    0.95224   0.58505   0.37792   1.000
    O32     O    0.12203   0.41489   0.54775   1.000
    N33     N    0.25006   0.25013   0.75012   1.000
    O34     O    0.21745   0.26093   0.76094   1.000
    O35     O    0.26096   0.26107   0.76105   1.000
    O36     O    0.26087   0.21752   0.76088   1.000
    O37     O    0.26090   0.26089   0.71751   1.000
    N38     N    0.49999   0.99999   0.99998   1.000
    O39     O    0.41513   0.12226   0.91531   1.000
    O40     O    0.58489   0.95207   0.08513   1.000
    O41     O    0.58485   0.87773   0.08465   1.000
    O42     O    0.41509   0.04792   0.91485   1.000
    N43     N    0.74992   0.74986   0.24987   1.000
    O44     O    0.73911   0.78247   0.23911   1.000
    O45     O    0.73909   0.73910   0.28248   1.000
    O46     O    0.78253   0.73906   0.23905   1.000
    O47     O    0.73903   0.73892   0.23894   1.000
loop_
    _geom_bond_atom_site_label_1
    _geom_bond_atom_site_label_2
    _geom_bond_distance
    _geom_bond_site_symmetry_2
    _ccdc_geom_bond_type
    N8     O9        2.31831  1_655   S
    Zr2    O9        3.30304      .   S
    N8     O10       2.31971  1_556   S
    Zr5    O10       3.30478      .   S
    N8     O11       2.31970  1_655   S
    Zr7    O11       3.30470      .   S
    N8     O12       2.31833  1_556   S
    Zr0    O12       3.30299      .   S
    N13    O14       2.31912      .   S
    Zr4    O14       3.30404      .   S
    N13    O15       2.31863  1_565   S
    Zr6    O15       3.30497      .   S
    N13    O16       2.31894      .   S
    Zr3    O16       3.30380      .   S
    N13    O17       2.31930  1_565   S
    Zr1    O17       3.30414      .   S
    N18    O19       2.31987      .   S
    Zr5    O19       3.30494      .   S
    N18    O20       2.31803      .   S
    Zr4    O20       3.30276      .   S
    N18    O21       2.31989      .   S
    Zr7    O21       3.30498      .   S
    N18    O22       2.31803      .   S
    Zr6    O22       3.30278      .   S
    N23    O24       2.31884  1_665   S
    Zr1    O24       3.30356      .   S
    N23    O25       2.31891  1_556   S
    Zr0    O25       3.30367      .   S
    N23    O26       2.31890  1_665   S
    Zr2    O26       3.30365      .   S
    N23    O27       2.31884  1_556   S
    Zr3    O27       3.30358      .   S
    N28    O29       2.31852      .   S
    Zr4    O29       3.30329      .   S
    N28    O30       2.31927  1_655   S
    Zr2    O30       3.30398      .   S
    N28    O31       2.31817      .   S
    Zr0    O31       3.30288      .   S
    N28    O32       2.31922  1_655   S
    Zr6    O32       3.30402      .   S
    N33    O34       0.49176      .   S
    Zr2    O34       1.47529      .   S
    N33    O35       0.49231      .   S
    Zr7    O35       1.47692      .   S
    N33    O36       0.49173      .   S
    Zr1    O36       1.47519      .   S
    N33    O37       0.49173      .   S
    Zr6    O37       1.47519      .   S
    N38    O39       2.31963  1_565   S
    Zr7    O39       3.30469      .   S
    N38    O40       2.31817  1_556   S
    Zr3    O40       3.30290      .   S
    N38    O41       2.31963  1_556   S
    Zr5    O41       3.30506      .   S
    N38    O42       2.31794  1_565   S
    Zr1    O42       3.30273      .   S
    N43    O44       0.49173      .   S
    Zr3    O44       1.47519      .   S
    N43    O45       0.49173      .   S
    Zr4    O45       1.47519      .   S
    N43    O46       0.49176      .   S
    Zr0    O46       1.47528      .   S
    N43    O47       0.49228      .   S
    Zr5    O47       1.47683      .   S
