# CIF file generated by openbabel 2.4.90, see http://openbabel.sf.net
data_I
_chemical_name_common ''
_cell_length_a 14.828
_cell_length_b 14.816
_cell_length_c 16.775
_cell_angle_alpha 102.675
_cell_angle_beta 102.684
_cell_angle_gamma 115.839
_space_group_name_H-M_alt 'P 1'
_space_group_name_Hall 'P 1'
loop_
    _symmetry_equiv_pos_as_xyz
    x,y,z
loop_
    _atom_site_label
    _atom_site_type_symbol
    _atom_site_fract_x
    _atom_site_fract_y
    _atom_site_fract_z
    _atom_site_occupancy
    Zn0     Zn   0.07463   0.47341   0.57820   1.000
    Zn1     Zn   0.47409   0.07509   0.07879   1.000
    Zn2     Zn   0.92537   0.52661   0.42178   1.000
    Zn3     Zn   0.32889   0.67073   0.74980   1.000
    Zn4     Zn   0.67111   0.32929   0.25011   1.000
    Zn5     Zn   0.52590   0.92493   0.92119   1.000
