# CIF file generated by openbabel 2.4.90, see http://openbabel.sf.net
data_I
_chemical_name_common ''
_cell_length_a 14.828
_cell_length_b 14.816
_cell_length_c 16.775
_cell_angle_alpha 102.675
_cell_angle_beta 102.684
_cell_angle_gamma 115.839
_space_group_name_H-M_alt 'P 1'
_space_group_name_Hall 'P 1'
loop_
    _symmetry_equiv_pos_as_xyz
    x,y,z
loop_
    _atom_site_label
    _atom_site_type_symbol
    _atom_site_fract_x
    _atom_site_fract_y
    _atom_site_fract_z
    _atom_site_occupancy
    N0      N    0.48308   0.22342   0.62328   1.000
    N1      N    0.77657   0.51694   0.87645   1.000
    N2      N    0.22342   0.48309   0.12353   1.000
    N3      N    0.51691   0.77660   0.37670   1.000
    Zr4     Zr   0.07463   0.47341   0.57820   1.000
    O5      O    0.19275   0.55570   0.51729   1.000
    O6      O    0.00405   0.50036   0.66476   1.000
    Zr7     Zr   0.67111   0.32929   0.25011   1.000
    O8      O    0.82282   0.37199   0.21153   1.000
    O9      O    0.54390   0.36562   0.20689   1.000
    O10     O    0.63473   0.45641   0.29337   1.000
    O11     O    0.62830   0.17746   0.28869   1.000
    Zr12    Zr   0.52590   0.92493   0.92119   1.000
    O13     O    0.44382   0.80692   0.98232   1.000
    O14     O    0.49914   0.99565   0.83474   1.000
    Zr15    Zr   0.32889   0.67073   0.74980   1.000
    O16     O    0.17717   0.62803   0.78840   1.000
    O17     O    0.45610   0.63441   0.79305   1.000
    O18     O    0.37170   0.82256   0.71124   1.000
    O19     O    0.36527   0.54361   0.70656   1.000
    Zr20    Zr   0.92537   0.52661   0.42178   1.000
    O21     O    0.99595   0.49966   0.33521   1.000
    O22     O    0.80725   0.44432   0.48269   1.000
    Zr23    Zr   0.47409   0.07509   0.07879   1.000
    O24     O    0.55618   0.19310   0.01766   1.000
    O25     O    0.50086   0.00438   0.16524   1.000
    O26     O    0.59974   0.82769   0.90947   1.000
    O27     O    0.82800   0.60027   0.40997   1.000
    O28     O    0.40025   0.17233   0.09051   1.000
    O29     O    0.17199   0.39975   0.59001   1.000
loop_
    _geom_bond_atom_site_label_1
    _geom_bond_atom_site_label_2
    _geom_bond_distance
    _geom_bond_site_symmetry_2
    _ccdc_geom_bond_type
    Zr4    O5        2.25146      .   S
    N3     O5        5.83360      .   S
    Zr4    O6        2.03482      .   S
    N1     O6        5.44484  1_655   S
    Zr7    O8        2.33631      .   S
    N2     O8        6.04708  1_455   S
    Zr7    O9        2.19748      .   S
    N2     O9        5.73803      .   S
    Zr7    O10       2.19601      .   S
    N3     O10       5.73560      .   S
    Zr7    O11       2.33593      .   S
    N3     O11       6.04564  1_565   S
    Zr12   O13       2.25171      .   S
    N2     O13       5.83359  1_554   S
    Zr12   O14       2.03341      .   S
    N0     O14       5.44164  1_545   S
    Zr15   O16       2.33655      .   S
    N1     O16       6.04747  1_655   S
    Zr15   O17       2.19757      .   S
    N1     O17       5.73813      .   S
    Zr15   O18       2.33569      .   S
    N0     O18       6.04529  1_545   S
    Zr15   O19       2.19596      .   S
    N0     O19       5.73548      .   S
    Zr20   O21       2.03490      .   S
    N2     O21       5.44475  1_455   S
    Zr20   O22       2.25146      .   S
    N0     O22       5.83356      .   S
    Zr23   O24       2.25171      .   S
    N1     O24       5.83358  1_556   S
    Zr23   O25       2.03341      .   S
    N3     O25       5.44159  1_565   S
    Zr12   O26       2.15829      .   S
    N1     O26       6.19860      .   S
    Zr20   O27       2.15813      .   S
    N3     O27       6.19907      .   S
    Zr23   O28       2.15830      .   S
    N2     O28       6.19861      .   S
    Zr4    O29       2.15813      .   S
    N0     O29       6.19907      .   S
