# CIF file generated by openbabel 2.4.90, see http://openbabel.sf.net
data_I
_chemical_name_common ''
_cell_length_a 21.11
_cell_length_b 17.853
_cell_length_c 17.853
_cell_angle_alpha 119.977
_cell_angle_beta 89.995
_cell_angle_gamma 89.962
_space_group_name_H-M_alt 'P 1'
_space_group_name_Hall 'P 1'
loop_
    _symmetry_equiv_pos_as_xyz
    x,y,z
loop_
    _atom_site_label
    _atom_site_type_symbol
    _atom_site_fract_x
    _atom_site_fract_y
    _atom_site_fract_z
    _atom_site_occupancy
    Zn0     Zn   0.94177   0.54730   0.07787   1.000
    Zn1     Zn   0.27516   0.53068   0.45270   1.000
    Zn2     Zn   0.77515   0.53074   0.45275   1.000
    Zn3     Zn   0.10850   0.92225   0.46953   1.000
    Zn4     Zn   0.60849   0.92226   0.46957   1.000
    Zn5     Zn   0.19183   0.45265   0.92205   1.000
    Zn6     Zn   0.69183   0.45266   0.92207   1.000
    Zn7     Zn   0.02515   0.46938   0.54718   1.000
    Zn8     Zn   0.52513   0.46937   0.54719   1.000
    Zn9     Zn   0.35847   0.07785   0.53059   1.000
    Zn10    Zn   0.85845   0.07787   0.53060   1.000
    Zn11    Zn   0.44178   0.54725   0.07780   1.000
    Cl12    Cl   0.44873   0.46162   0.13519   1.000
    Cl13    Cl   0.94875   0.46169   0.13520   1.000
    Cl14    Cl   0.28197   0.67358   0.53820   1.000
    Cl15    Cl   0.78193   0.67364   0.53827   1.000
    Cl16    Cl   0.11541   0.86493   0.32660   1.000
    Cl17    Cl   0.61542   0.86492   0.32665   1.000
    Cl18    Cl   0.19870   0.53815   0.86459   1.000
    Cl19    Cl   0.69866   0.53817   0.86462   1.000
    Cl20    Cl   0.03200   0.32647   0.46150   1.000
    Cl21    Cl   0.53201   0.32647   0.46159   1.000
    Cl22    Cl   0.36541   0.13512   0.67300   1.000
    Cl23    Cl   0.86543   0.13515   0.67350   1.000
loop_
    _geom_bond_atom_site_label_1
    _geom_bond_atom_site_label_2
    _geom_bond_distance
    _geom_bond_site_symmetry_2
    _ccdc_geom_bond_type
    Zn11   Cl12      2.23017      .   S
    Zn0    Cl13      2.22900      .   S
    Cl16   Zn3       2.22937      .   S
    Cl17   Zn4       2.22919      .   S
    Zn1    Cl14      2.22897      .   S
    Zn2    Cl15      2.22893      .   S
    Cl20   Zn7       2.22920      .   S
    Cl21   Zn8       2.22906      .   S
    Zn9    Cl22      2.22116      .   S
    Zn10   Cl23      2.22918      .   S
    Cl18   Zn5       2.22891      .   S
    Cl19   Zn6       2.22895      .   S
