# CIF file generated by openbabel 2.4.90, see http://openbabel.sf.net
data_I
_chemical_name_common ''
_cell_length_a 21.11
_cell_length_b 17.853
_cell_length_c 17.853
_cell_angle_alpha 119.977
_cell_angle_beta 89.995
_cell_angle_gamma 89.962
_space_group_name_H-M_alt 'P 1'
_space_group_name_Hall 'P 1'
loop_
    _symmetry_equiv_pos_as_xyz
    x,y,z
loop_
    _atom_site_label
    _atom_site_type_symbol
    _atom_site_fract_x
    _atom_site_fract_y
    _atom_site_fract_z
    _atom_site_occupancy
    N0      N    0.53092   0.61966   0.46227   1.000
    N1      N    0.03094   0.61967   0.46227   1.000
    N2      N    0.44760   0.46229   0.84271   1.000
    N3      N    0.78095   0.38043   0.53763   1.000
    N4      N    0.28097   0.38039   0.53760   1.000
    N5      N    0.94722   0.46233   0.84271   1.000
    N6      N    0.11426   0.15735   0.61957   1.000
    N7      N    0.61426   0.15734   0.61963   1.000
    N8      N    0.86428   0.84276   0.38045   1.000
    N9      N    0.36431   0.84274   0.38044   1.000
    N10     N    0.69760   0.53762   0.15719   1.000
    N11     N    0.19759   0.53762   0.15718   1.000
    Zr12    Zr   0.36194   0.10649   0.60180   1.000
    O13     O    0.43664   0.11374   0.58597   1.000
    O14     O    0.33834   0.17799   0.56181   1.000
    Zr15    Zr   0.19527   0.49540   0.89332   1.000
    O16     O    0.26999   0.47228   0.88619   1.000
    O17     O    0.17168   0.38389   0.82189   1.000
    Zr18    Zr   0.94526   0.50449   0.10653   1.000
    O19     O    0.01997   0.52764   0.11370   1.000
    O20     O    0.92165   0.61607   0.17803   1.000
    Zr21    Zr   0.02857   0.39792   0.50434   1.000
    O22     O    0.10331   0.41385   0.52752   1.000
    O23     O    0.00489   0.43802   0.61596   1.000
    Zr24    Zr   0.69524   0.49541   0.89334   1.000
    O25     O    0.76988   0.47229   0.88620   1.000
    O26     O    0.67167   0.38390   0.82192   1.000
    Zr27    Zr   0.44526   0.50444   0.10650   1.000
    O28     O    0.51996   0.52760   0.11368   1.000
    O29     O    0.42166   0.61603   0.17800   1.000
    Zr30    Zr   0.86194   0.10651   0.60205   1.000
    O31     O    0.83833   0.17802   0.56195   1.000
    O32     O    0.93664   0.11375   0.58608   1.000
    Zr33    Zr   0.61195   0.89359   0.39811   1.000
    O34     O    0.68667   0.88636   0.41404   1.000
    O35     O    0.58834   0.82208   0.43814   1.000
    Zr36    Zr   0.11195   0.89359   0.39807   1.000
    O37     O    0.18667   0.88635   0.41400   1.000
    O38     O    0.08835   0.82209   0.43811   1.000
    Zr39    Zr   0.77854   0.60219   0.49551   1.000
    O40     O    0.75498   0.56205   0.38393   1.000
    O41     O    0.85328   0.58623   0.47234   1.000
    Zr42    Zr   0.27856   0.60213   0.49545   1.000
    O43     O    0.25499   0.56200   0.38388   1.000
    O44     O    0.35329   0.58618   0.47229   1.000
    Zr45    Zr   0.52857   0.39792   0.50439   1.000
    O46     O    0.60330   0.41387   0.52756   1.000
    O47     O    0.50498   0.43801   0.61599   1.000
    O48     O    0.10596   0.97794   0.47840   1.000
    O49     O    0.52259   0.47832   0.50041   1.000
    O50     O    0.68927   0.49943   0.97773   1.000
    O51     O    0.35596   0.02215   0.52156   1.000
    O52     O    0.18928   0.49943   0.97772   1.000
    O53     O    0.77259   0.52179   0.49950   1.000
    O54     O    0.27261   0.52173   0.49946   1.000
    O55     O    0.02260   0.47833   0.50038   1.000
    O56     O    0.43927   0.50045   0.02214   1.000
    O57     O    0.93917   0.50050   0.02216   1.000
    O58     O    0.60595   0.97794   0.47845   1.000
    O59     O    0.85595   0.02217   0.52170   1.000
loop_
    _geom_bond_atom_site_label_1
    _geom_bond_atom_site_label_2
    _geom_bond_distance
    _geom_bond_site_symmetry_2
    _ccdc_geom_bond_type
    Zr12   O13       1.61868      .   S
    N7     O13       3.81612      .   S
    Zr12   O14       1.81578      .   S
    N4     O14       4.03313      .   S
    Zr15   O16       1.61907      .   S
    N2     O16       3.81480      .   S
    Zr15   O17       1.81701      .   S
    N6     O17       4.03520      .   S
    Zr18   O19       1.61929  1_655   S
    N11    O19       3.81546      .   S
    Zr18   O20       1.81752      .   S
    N8     O20       4.03515      .   S
    Zr21   O22       1.61999      .   S
    N4     O22       3.81573      .   S
    Zr21   O23       1.81857      .   S
    N5     O23       4.03744  1_655   S
    Zr24   O25       1.61730      .   S
    N5     O25       3.80927      .   S
    Zr24   O26       1.81702      .   S
    N7     O26       4.03505      .   S
    Zr27   O28       1.61940      .   S
    N10    O28       3.81564      .   S
    Zr27   O29       1.81767      .   S
    N9     O29       4.03543      .   S
    Zr30   O31       1.81742      .   S
    N3     O31       4.03443      .   S
    Zr30   O32       1.61913      .   S
    N6     O32       3.81603  1_455   S
    Zr33   O34       1.61912      .   S
    N8     O34       3.81496      .   S
    Zr33   O35       1.81689      .   S
    N0     O35       4.03450      .   S
    Zr36   O37       1.61934      .   S
    N9     O37       3.81523      .   S
    Zr36   O38       1.81701      .   S
    N1     O38       4.03456      .   S
    Zr39   O40       1.81752      .   S
    N10    O40       4.03492      .   S
    Zr39   O41       1.61974      .   S
    N1     O41       3.81627  1_455   S
    Zr42   O43       1.81738      .   S
    N11    O43       4.03479      .   S
    Zr42   O44       1.61942      .   S
    N0     O44       3.81569      .   S
    Zr45   O46       1.61980      .   S
    N3     O46       3.81544      .   S
    Zr45   O47       1.81770      .   S
    N2     O47       4.03527      .   S
    Zr36   O48       1.47724      .   S
    N6     O48       2.92839  1_545   S
    Zr45   O49       1.47756      .   S
    N0     O49       2.92891      .   S
    N10    O50       2.92876  1_554   S
    Zr24   O50       1.47745      .   S
    Zr12   O51       1.47645      .   S
    N9     O51       2.92793  1_565   S
    Zr15   O52       1.47756      .   S
    N11    O52       2.92879  1_554   S
    Zr39   O53       1.47787      .   S
    N3     O53       2.92907      .   S
    N4     O54       2.92896      .   S
    Zr42   O54       1.47785      .   S
    N1     O55       2.92868      .   S
    Zr21   O55       1.47740      .   S
    Zr27   O56       1.47726      .   S
    N2     O56       2.92835  1_556   S
    N5     O57       2.92837  1_556   S
    Zr18   O57       1.47757      .   S
    N7     O58       2.92839  1_545   S
    Zr33   O58       1.47727      .   S
    N8     O59       2.92862  1_565   S
    Zr30   O59       1.47748      .   S
