# CIF file generated by openbabel 2.4.90, see http://openbabel.sf.net
data_I
_chemical_name_common ''
_cell_length_a 21.11
_cell_length_b 17.853
_cell_length_c 17.853
_cell_angle_alpha 119.977
_cell_angle_beta 89.995
_cell_angle_gamma 89.962
_space_group_name_H-M_alt 'P 1'
_space_group_name_Hall 'P 1'
loop_
    _symmetry_equiv_pos_as_xyz
    x,y,z
loop_
    _atom_site_label
    _atom_site_type_symbol
    _atom_site_fract_x
    _atom_site_fract_y
    _atom_site_fract_z
    _atom_site_occupancy
    N0      N    0.53092   0.61966   0.46227   1.000
    N1      N    0.03094   0.61967   0.46227   1.000
    N2      N    0.44760   0.46229   0.84271   1.000
    N3      N    0.78095   0.38043   0.53763   1.000
    N4      N    0.28097   0.38039   0.53760   1.000
    N5      N    0.94722   0.46233   0.84271   1.000
    N6      N    0.11426   0.15735   0.61957   1.000
    N7      N    0.61426   0.15734   0.61963   1.000
    N8      N    0.86428   0.84276   0.38045   1.000
    N9      N    0.36431   0.84274   0.38044   1.000
    N10     N    0.69760   0.53762   0.15719   1.000
    N11     N    0.19759   0.53762   0.15718   1.000
    Zr12    Zr   0.36194   0.10649   0.60180   1.000
    O13     O    0.34912   0.02741   0.52623   1.000
    O14     O    0.43664   0.11374   0.58597   1.000
    O15     O    0.36281   0.01688   0.51690   1.000
    O16     O    0.33834   0.17799   0.56181   1.000
    Zr17    Zr   0.19527   0.49540   0.89332   1.000
    O18     O    0.18244   0.49882   0.97245   1.000
    O19     O    0.19612   0.50003   0.98298   1.000
    O20     O    0.26999   0.47228   0.88619   1.000
    O21     O    0.17168   0.38389   0.82189   1.000
    Zr22    Zr   0.94526   0.50449   0.10653   1.000
    O23     O    0.94602   0.49989   0.01690   1.000
    O24     O    0.01997   0.52764   0.11370   1.000
    O25     O    0.93233   0.50110   0.02743   1.000
    O26     O    0.92165   0.61607   0.17803   1.000
    Zr27    Zr   0.02857   0.39792   0.50434   1.000
    O28     O    0.01575   0.47368   0.50099   1.000
    O29     O    0.02944   0.48299   0.49977   1.000
    O30     O    0.10331   0.41385   0.52752   1.000
    O31     O    0.00489   0.43802   0.61596   1.000
    Zr32    Zr   0.69524   0.49541   0.89334   1.000
    O33     O    0.76988   0.47229   0.88620   1.000
    O34     O    0.69611   0.50003   0.98300   1.000
    O35     O    0.68242   0.49883   0.97247   1.000
    O36     O    0.67167   0.38390   0.82192   1.000
    Zr37    Zr   0.44526   0.50444   0.10650   1.000
    O38     O    0.51996   0.52760   0.11368   1.000
    O39     O    0.43242   0.50106   0.02740   1.000
    O40     O    0.42166   0.61603   0.17800   1.000
    O41     O    0.44611   0.49984   0.01687   1.000
    Zr42    Zr   0.86194   0.10651   0.60205   1.000
    O43     O    0.84911   0.02743   0.52636   1.000
    O44     O    0.86280   0.01690   0.51703   1.000
    O45     O    0.83833   0.17802   0.56195   1.000
    O46     O    0.93664   0.11375   0.58608   1.000
    Zr47    Zr   0.61195   0.89359   0.39811   1.000
    O48     O    0.61280   0.98321   0.48310   1.000
    O49     O    0.59911   0.97268   0.47379   1.000
    O50     O    0.68667   0.88636   0.41404   1.000
    O51     O    0.58834   0.82208   0.43814   1.000
    Zr52    Zr   0.11195   0.89359   0.39807   1.000
    O53     O    0.18667   0.88635   0.41400   1.000
    O54     O    0.11280   0.98321   0.48306   1.000
    O55     O    0.08835   0.82209   0.43811   1.000
    O56     O    0.09912   0.97268   0.47374   1.000
    Zr57    Zr   0.77854   0.60219   0.49551   1.000
    O58     O    0.75498   0.56205   0.38393   1.000
    O59     O    0.85328   0.58623   0.47234   1.000
    O60     O    0.76574   0.52645   0.49890   1.000
    O61     O    0.77944   0.51712   0.50010   1.000
    Zr62    Zr   0.27856   0.60213   0.49545   1.000
    O63     O    0.25499   0.56200   0.38388   1.000
    O64     O    0.27946   0.51707   0.50005   1.000
    O65     O    0.26576   0.52640   0.49886   1.000
    O66     O    0.35329   0.58618   0.47229   1.000
    Zr67    Zr   0.52857   0.39792   0.50439   1.000
    O68     O    0.60330   0.41387   0.52756   1.000
    O69     O    0.50498   0.43801   0.61599   1.000
    O70     O    0.51575   0.47367   0.50101   1.000
    O71     O    0.52943   0.48298   0.49980   1.000
loop_
    _geom_bond_atom_site_label_1
    _geom_bond_atom_site_label_2
    _geom_bond_distance
    _geom_bond_site_symmetry_2
    _ccdc_geom_bond_type
    Zr12   O13       1.40844      .   S
    N9     O13       3.02827  1_565   S
    Zr12   O14       1.61868      .   S
    N7     O14       3.81612      .   S
    Zr12   O15       1.56004      .   S
    N9     O15       2.83421  1_565   S
    Zr12   O16       1.81578      .   S
    N4     O16       4.03313      .   S
    Zr17   O18       1.40945      .   S
    N11    O18       3.02922  1_554   S
    Zr17   O19       1.56124      .   S
    N11    O19       2.83498  1_554   S
    Zr17   O20       1.61907      .   S
    N2     O20       3.81480      .   S
    Zr17   O21       1.81701      .   S
    N6     O21       4.03520      .   S
    Zr22   O23       1.56097      .   S
    N5     O23       2.83492  1_556   S
    Zr22   O24       1.61929  1_655   S
    N11    O24       3.81546      .   S
    Zr22   O25       1.40977      .   S
    N5     O25       3.02846  1_556   S
    Zr22   O26       1.81752      .   S
    N8     O26       4.03515      .   S
    Zr27   O28       1.40935      .   S
    N1     O28       3.02906      .   S
    Zr27   O29       1.56103      .   S
    N1     O29       2.83492      .   S
    Zr27   O30       1.61999      .   S
    N4     O30       3.81573      .   S
    Zr27   O31       1.81857      .   S
    N5     O31       4.03744  1_655   S
    Zr32   O33       1.61730      .   S
    N5     O33       3.80927      .   S
    Zr32   O34       1.56118      .   S
    N10    O34       2.83489  1_554   S
    Zr32   O35       1.40928      .   S
    N10    O35       3.02924  1_554   S
    Zr32   O36       1.81702      .   S
    N7     O36       4.03505      .   S
    Zr37   O38       1.61940      .   S
    N10    O38       3.81564      .   S
    Zr37   O39       1.40923      .   S
    N2     O39       3.02872  1_556   S
    Zr37   O40       1.81767      .   S
    N9     O40       4.03543      .   S
    Zr37   O41       1.56086      .   S
    N2     O41       2.83460  1_556   S
    Zr42   O43       1.40946      .   S
    N8     O43       3.02898  1_565   S
    Zr42   O44       1.56107      .   S
    N8     O44       2.83489  1_565   S
    Zr42   O45       1.81742      .   S
    N3     O45       4.03443      .   S
    Zr42   O46       1.61913      .   S
    N6     O46       3.81603  1_455   S
    Zr47   O48       1.56097      .   S
    N7     O48       2.83454  1_545   S
    Zr47   O49       1.40913      .   S
    N7     O49       3.02885  1_545   S
    Zr47   O50       1.61912      .   S
    N8     O50       3.81496      .   S
    Zr47   O51       1.81689      .   S
    N0     O51       4.03450      .   S
    Zr52   O53       1.61934      .   S
    N9     O53       3.81523      .   S
    Zr52   O54       1.56095      .   S
    N6     O54       2.83454  1_545   S
    Zr52   O55       1.81701      .   S
    N1     O55       4.03456      .   S
    Zr52   O56       1.40910      .   S
    N6     O56       3.02886  1_545   S
    Zr57   O58       1.81752      .   S
    N10    O58       4.03492      .   S
    Zr57   O59       1.61974      .   S
    N1     O59       3.81627  1_455   S
    Zr57   O60       1.40986      .   S
    N3     O60       3.02939      .   S
    Zr57   O61       1.56146      .   S
    N3     O61       2.83538      .   S
    Zr62   O63       1.81738      .   S
    N11    O63       4.03479      .   S
    Zr62   O64       1.56143      .   S
    N4     O64       2.83527      .   S
    Zr62   O65       1.40984      .   S
    N4     O65       3.02927      .   S
    Zr62   O66       1.61942      .   S
    N0     O66       3.81569      .   S
    Zr67   O68       1.61980      .   S
    N3     O68       3.81544      .   S
    Zr67   O69       1.81770      .   S
    N2     O69       4.03527      .   S
    Zr67   O70       1.40948      .   S
    N0     O70       3.02929      .   S
    Zr67   O71       1.56119      .   S
    N0     O71       2.83514      .   S
