# CIF file generated by openbabel 2.4.90, see http://openbabel.sf.net
data_I
_chemical_name_common ''
_cell_length_a 21.11
_cell_length_b 17.853
_cell_length_c 17.853
_cell_angle_alpha 119.977
_cell_angle_beta 89.995
_cell_angle_gamma 89.962
_space_group_name_H-M_alt 'P 1'
_space_group_name_Hall 'P 1'
loop_
    _symmetry_equiv_pos_as_xyz
    x,y,z
loop_
    _atom_site_label
    _atom_site_type_symbol
    _atom_site_fract_x
    _atom_site_fract_y
    _atom_site_fract_z
    _atom_site_occupancy
    Zr0     Zr   0.44178   0.54725   0.07780   1.000
    Zr1     Zr   0.94177   0.54730   0.07787   1.000
    Zr2     Zr   0.27516   0.53068   0.45270   1.000
    Zr3     Zr   0.77515   0.53074   0.45275   1.000
    Zr4     Zr   0.10850   0.92225   0.46953   1.000
    Zr5     Zr   0.60849   0.92226   0.46957   1.000
    Zr6     Zr   0.19183   0.45265   0.92205   1.000
    Zr7     Zr   0.69183   0.45266   0.92207   1.000
    Zr8     Zr   0.02515   0.46938   0.54718   1.000
    Zr9     Zr   0.52513   0.46937   0.54719   1.000
    Zr10    Zr   0.35847   0.07785   0.53059   1.000
    Zr11    Zr   0.85845   0.07787   0.53060   1.000
    Zr12    Zr   0.44873   0.46162   0.13519   1.000
    Zr13    Zr   0.94875   0.46169   0.13520   1.000
    Zr14    Zr   0.28197   0.67358   0.53820   1.000
    Zr15    Zr   0.78193   0.67364   0.53827   1.000
    Zr16    Zr   0.11541   0.86493   0.32660   1.000
    Zr17    Zr   0.61542   0.86492   0.32665   1.000
    Zr18    Zr   0.19870   0.53815   0.86459   1.000
    Zr19    Zr   0.69866   0.53817   0.86462   1.000
    Zr20    Zr   0.03200   0.32647   0.46150   1.000
    Zr21    Zr   0.53201   0.32647   0.46159   1.000
    Zr22    Zr   0.36541   0.13512   0.67300   1.000
    Zr23    Zr   0.86543   0.13515   0.67350   1.000
    O24     O    0.44526   0.50444   0.10650   1.000
    O25     O    0.94526   0.50449   0.10653   1.000
    O26     O    0.11195   0.89359   0.39807   1.000
    O27     O    0.61195   0.89359   0.39811   1.000
    O28     O    0.27856   0.60213   0.49545   1.000
    O29     O    0.77854   0.60219   0.49551   1.000
    O30     O    0.02857   0.39792   0.50434   1.000
    O31     O    0.52857   0.39792   0.50439   1.000
    O32     O    0.36194   0.10649   0.60180   1.000
    O33     O    0.86194   0.10651   0.60205   1.000
    O34     O    0.19527   0.49540   0.89332   1.000
    O35     O    0.69524   0.49541   0.89334   1.000
    N36     N    0.53092   0.61966   0.46227   1.000
    O37     O    0.50293   0.54941   0.49764   1.000
    O38     O    0.42803   0.57022   0.44914   1.000
    O39     O    0.56474   0.75058   0.47817   1.000
    O40     O    0.53030   0.56803   0.49521   1.000
    N41     N    0.03094   0.61967   0.46227   1.000
    O42     O    0.00294   0.54943   0.49764   1.000
    O43     O    0.92803   0.57028   0.44918   1.000
    O44     O    0.06475   0.75059   0.47815   1.000
    O45     O    0.03032   0.56805   0.49521   1.000
    N46     N    0.44760   0.46229   0.84271   1.000
    O47     O    0.41959   0.49768   0.94831   1.000
    O48     O    0.34471   0.44915   0.87905   1.000
    O49     O    0.48139   0.47810   0.72758   1.000
    O50     O    0.44697   0.49525   0.92724   1.000
    N51     N    0.78095   0.38043   0.53763   1.000
    O52     O    0.75294   0.45070   0.50230   1.000
    O53     O    0.67803   0.42981   0.55073   1.000
    O54     O    0.81473   0.24952   0.52185   1.000
    O55     O    0.78033   0.43205   0.50470   1.000
    N56     N    0.28097   0.38039   0.53760   1.000
    O57     O    0.25296   0.45066   0.50226   1.000
    O58     O    0.17805   0.42978   0.55070   1.000
    O59     O    0.31475   0.24950   0.52183   1.000
    O60     O    0.28035   0.43201   0.50466   1.000
    N61     N    0.94722   0.46233   0.84271   1.000
    O62     O    0.91939   0.49772   0.94832   1.000
    O63     O    0.84452   0.44918   0.87905   1.000
    O64     O    0.98121   0.47812   0.72758   1.000
    O65     O    0.94677   0.49529   0.92726   1.000
    N66     N    0.11426   0.15735   0.61957   1.000
    O67     O    0.08628   0.05177   0.54942   1.000
    O68     O    0.01134   0.12098   0.57011   1.000
    O69     O    0.14810   0.27239   0.75047   1.000
    O70     O    0.11364   0.07282   0.56805   1.000
    N71     N    0.61426   0.15734   0.61963   1.000
    O72     O    0.58627   0.05177   0.54947   1.000
    O73     O    0.51135   0.12098   0.57015   1.000
    O74     O    0.64809   0.27239   0.75050   1.000
    O75     O    0.61364   0.07282   0.56810   1.000
    N76     N    0.86428   0.84276   0.38045   1.000
    O77     O    0.83627   0.94836   0.45067   1.000
    O78     O    0.76138   0.87914   0.42997   1.000
    O79     O    0.89805   0.72765   0.24952   1.000
    O80     O    0.86365   0.92729   0.43201   1.000
    N81     N    0.36431   0.84274   0.38044   1.000
    O82     O    0.33629   0.94834   0.45066   1.000
    O83     O    0.26140   0.87912   0.42993   1.000
    O84     O    0.39807   0.72762   0.24950   1.000
    O85     O    0.36367   0.92727   0.43200   1.000
    N86     N    0.69760   0.53762   0.15719   1.000
    O87     O    0.66960   0.50225   0.05159   1.000
    O88     O    0.59467   0.55075   0.12087   1.000
    O89     O    0.69698   0.50466   0.07266   1.000
    O90     O    0.73142   0.52191   0.27234   1.000
    N91     N    0.19759   0.53762   0.15718   1.000
    O92     O    0.16960   0.50225   0.05158   1.000
    O93     O    0.09467   0.55078   0.12087   1.000
    O94     O    0.19698   0.50465   0.07265   1.000
    O95     O    0.23142   0.52188   0.27231   1.000
loop_
    _geom_bond_atom_site_label_1
    _geom_bond_atom_site_label_2
    _geom_bond_distance
    _geom_bond_site_symmetry_2
    _ccdc_geom_bond_type
    Zr0    O24       1.11508      .   S
    Zr12   O24       1.11508      .   S
    Zr1    O25       1.11450      .   S
    Zr13   O25       1.11450      .   S
    Zr16   O26       1.11468      .   S
    Zr4    O26       1.11468      .   S
    Zr17   O27       1.11460      .   S
    Zr5    O27       1.11460      .   S
    Zr2    O28       1.11448      .   S
    Zr14   O28       1.11448      .   S
    Zr3    O29       1.11446      .   S
    Zr15   O29       1.11446      .   S
    Zr20   O30       1.11460      .   S
    Zr8    O30       1.11460      .   S
    Zr21   O31       1.11453      .   S
    Zr9    O31       1.11453      .   S
    Zr10   O32       1.11058      .   S
    Zr22   O32       1.11058      .   S
    Zr11   O33       1.11459      .   S
    Zr23   O33       1.11459      .   S
    Zr18   O34       1.11446      .   S
    Zr6    O34       1.11446      .   S
    Zr19   O35       1.11447      .   S
    Zr7    O35       1.11447      .   S
    N36    O37       1.76429      .   S
    Zr9    O37       2.07532      .   S
    N36    O38       2.31253      .   S
    Zr2    O38       3.31122      .   S
    N36    O39       2.32224      .   S
    Zr5    O39       3.27787      .   S
    N36    O40       1.31793      .   S
    Zr9    O40       2.36841      .   S
    N41    O42       1.76427      .   S
    Zr8    O42       2.07540      .   S
    N41    O43       2.31268  1_455   S
    Zr3    O43       3.31149      .   S
    N41    O44       2.32217      .   S
    Zr4    O44       3.27784      .   S
    N41    O45       1.31792      .   S
    Zr8    O45       2.36842      .   S
    N46    O47       1.76414      .   S
    Zr0    O47       2.07445  1_554   S
    N46    O48       2.31218      .   S
    Zr6    O48       3.31052      .   S
    N46    O49       2.32210      .   S
    Zr9    O49       3.27825      .   S
    N46    O50       1.31779      .   S
    Zr0    O50       2.36747  1_554   S
    N51    O52       1.76395      .   S
    Zr3    O52       2.07562      .   S
    N51    O53       2.31173      .   S
    Zr9    O53       3.31088      .   S
    N51    O54       2.32152      .   S
    Zr11   O54       3.27751      .   S
    N51    O55       1.31791      .   S
    Zr3    O55       2.36837      .   S
    N56    O57       1.76388      .   S
    Zr2    O57       2.07551      .   S
    N56    O58       2.31179      .   S
    Zr8    O58       3.31104      .   S
    N56    O59       2.32145      .   S
    Zr10   O59       3.27740      .   S
    N56    O60       1.31783      .   S
    Zr2    O60       2.36826      .   S
    N61    O62       1.76304      .   S
    Zr1    O62       2.07620  1_554   S
    N61    O63       2.30855      .   S
    Zr7    O63       3.30689      .   S
    N61    O64       2.32336      .   S
    Zr8    O64       3.27939  1_455   S
    N61    O65       1.31799      .   S
    Zr1    O65       2.36818  1_554   S
    N66    O67       1.76436      .   S
    Zr4    O67       2.07451  1_565   S
    N66    O68       2.31328      .   S
    Zr11   O68       3.31171  1_655   S
    N66    O69       2.32279      .   S
    Zr6    O69       3.27812      .   S
    N66    O70       1.31767      .   S
    Zr4    O70       2.36798  1_565   S
    N71    O72       1.76433      .   S
    Zr5    O72       2.07443  1_565   S
    N71    O73       2.31318      .   S
    Zr10   O73       3.31169      .   S
    N71    O74       2.32262      .   S
    Zr7    O74       3.27800      .   S
    N71    O75       1.31761      .   S
    Zr5    O75       2.36791  1_565   S
    N76    O77       1.76416      .   S
    Zr11   O77       2.07512  1_545   S
    N76    O78       2.31223      .   S
    Zr5    O78       3.31089      .   S
    N76    O79       2.32213      .   S
    Zr1    O79       3.27805      .   S
    N76    O80       1.31787      .   S
    Zr11   O80       2.36818  1_545   S
    N81    O82       1.76416      .   S
    Zr10   O82       2.07517  1_545   S
    N81    O83       2.31222      .   S
    Zr4    O83       3.31102      .   S
    N81    O84       2.32227      .   S
    Zr0    O84       3.27855      .   S
    N81    O85       1.31790      .   S
    Zr10   O85       2.36820  1_545   S
    N86    O87       1.76448      .   S
    Zr7    O87       2.07463  1_556   S
    N86    O88       2.31252      .   S
    Zr0    O88       3.31130      .   S
    N86    O89       1.31774      .   S
    Zr7    O89       2.36807  1_556   S
    N86    O90       2.32193      .   S
    Zr3    O90       3.27772      .   S
    N91    O92       1.76430      .   S
    Zr6    O92       2.07491  1_556   S
    N91    O93       2.31254      .   S
    Zr1    O93       3.31126  1_655   S
    N91    O94       1.31776      .   S
    Zr6    O94       2.36815  1_556   S
    N91    O95       2.32194      .   S
    Zr2    O95       3.27770      .   S
