# CIF file generated by openbabel 2.4.90, see http://openbabel.sf.net
data_I
_chemical_name_common ''
_cell_length_a 23.263
_cell_length_b 15.816
_cell_length_c 15.993
_cell_angle_alpha 90.014
_cell_angle_beta 89.916
_cell_angle_gamma 90.006
_space_group_name_H-M_alt 'P 1'
_space_group_name_Hall 'P 1'
loop_
    _symmetry_equiv_pos_as_xyz
    x,y,z
loop_
    _atom_site_label
    _atom_site_type_symbol
    _atom_site_fract_x
    _atom_site_fract_y
    _atom_site_fract_z
    _atom_site_occupancy
    Zn0     Zn   0.56730   0.99984   0.57994   1.000
    Zn1     Zn   0.07415   0.99977   0.75697   1.000
    Zn2     Zn   0.57481   0.00031   0.75724   1.000
    Zn3     Zn   0.31750   0.00007   0.42069   1.000
    Zn4     Zn   0.81753   0.00001   0.42000   1.000
    Zn5     Zn   0.32507   0.99993   0.24350   1.000
    Zn6     Zn   0.82504   0.99984   0.24279   1.000
    Zn7     Zn   0.06744   0.99973   0.57978   1.000
loop_
    _geom_bond_atom_site_label_1
    _geom_bond_atom_site_label_2
    _geom_bond_distance
    _geom_bond_site_symmetry_2
    _ccdc_geom_bond_type
    Zn7    Zn1       2.83832      .   S
    Zn0    Zn2       2.84120  1_565   S
    Zn3    Zn5       2.83901  1_545   S
    Zn4    Zn6       2.83925  1_545   S
