# CIF file generated by openbabel 2.4.90, see http://openbabel.sf.net
data_I
_chemical_name_common ''
_cell_length_a 23.263
_cell_length_b 15.816
_cell_length_c 15.993
_cell_angle_alpha 90.014
_cell_angle_beta 89.916
_cell_angle_gamma 90.006
_space_group_name_H-M_alt 'P 1'
_space_group_name_Hall 'P 1'
loop_
    _symmetry_equiv_pos_as_xyz
    x,y,z
loop_
    _atom_site_label
    _atom_site_type_symbol
    _atom_site_fract_x
    _atom_site_fract_y
    _atom_site_fract_z
    _atom_site_occupancy
    Zr0     Zr   0.06744   0.99973   0.57978   1.000
    Zr1     Zr   0.56730   0.99984   0.57994   1.000
    Zr2     Zr   0.07415   0.99977   0.75697   1.000
    Zr3     Zr   0.57481   0.00031   0.75724   1.000
    Zr4     Zr   0.31750   0.00007   0.42069   1.000
    Zr5     Zr   0.81753   0.00001   0.42000   1.000
    Zr6     Zr   0.32507   0.99993   0.24350   1.000
    Zr7     Zr   0.82504   0.99984   0.24279   1.000
    O8      O    0.07079   0.99975   0.66837   1.000
    O9      O    0.57106   0.00008   0.66859   1.000
    O10     O    0.32129   0.00000   0.33209   1.000
    O11     O    0.82129   0.99992   0.33139   1.000
    N12     N    0.82106   0.50041   0.67141   1.000
    O13     O    0.71372   0.72785   0.71126   1.000
    O14     O    0.93270   0.72628   0.70938   1.000
    O15     O    0.70931   0.72638   0.63162   1.000
    O16     O    0.92876   0.27327   0.62958   1.000
    O17     O    0.93281   0.27410   0.70920   1.000
    O18     O    0.92799   0.72795   0.62992   1.000
    O19     O    0.71411   0.27244   0.71036   1.000
    O20     O    0.70918   0.27421   0.63084   1.000
    N21     N    0.06663   0.99453   0.16812   1.000
    O22     O    0.06795   0.99709   0.34172   1.000
    O23     O    0.06812   0.99580   0.99478   1.000
    N24     N    0.57155   0.49929   0.32845   1.000
    O25     O    0.46395   0.27197   0.29029   1.000
    O26     O    0.45959   0.27362   0.36991   1.000
    O27     O    0.68378   0.27367   0.29020   1.000
    O28     O    0.45954   0.72572   0.36812   1.000
    O29     O    0.67862   0.27192   0.36962   1.000
    O30     O    0.68329   0.72560   0.29081   1.000
    O31     O    0.46451   0.72727   0.28858   1.000
    O32     O    0.67883   0.72655   0.37038   1.000
    N33     N    0.56749   0.00850   0.16831   1.000
    O34     O    0.56832   0.00435   0.34188   1.000
    O35     O    0.56910   0.00651   0.99503   1.000
    N36     N    0.32101   0.49921   0.67271   1.000
    O37     O    0.21356   0.72731   0.71068   1.000
    O38     O    0.20979   0.27264   0.63244   1.000
    O39     O    0.43293   0.72581   0.71054   1.000
    O40     O    0.20875   0.72479   0.63126   1.000
    O41     O    0.43304   0.27361   0.70999   1.000
    O42     O    0.21351   0.27192   0.71215   1.000
    O43     O    0.42805   0.27185   0.63051   1.000
    O44     O    0.42855   0.72649   0.63091   1.000
    N45     N    0.31706   0.00300   0.83205   1.000
    O46     O    0.31886   0.00250   0.00547   1.000
    O47     O    0.31824   0.00116   0.65867   1.000
    N48     N    0.07149   0.50071   0.32853   1.000
    O49     O    0.17880   0.27349   0.37063   1.000
    O50     O    0.18326   0.27433   0.29104   1.000
    O51     O    0.95952   0.27430   0.36750   1.000
    O52     O    0.96445   0.27267   0.28797   1.000
    O53     O    0.96394   0.72798   0.29012   1.000
    O54     O    0.18381   0.72624   0.29108   1.000
    O55     O    0.17846   0.72818   0.37046   1.000
    O56     O    0.95958   0.72643   0.36974   1.000
    N57     N    0.81678   0.99570   0.83140   1.000
    O58     O    0.81805   0.99828   0.65793   1.000
    O59     O    0.81872   0.99633   0.00472   1.000
loop_
    _geom_bond_atom_site_label_1
    _geom_bond_atom_site_label_2
    _geom_bond_distance
    _geom_bond_site_symmetry_2
    _ccdc_geom_bond_type
    Zr0    O8        1.41916      .   S
    Zr2    O8        1.41916      .   S
    Zr1    O9        1.42060  1_565   S
    Zr3    O9        1.42060      .   S
    Zr4    O10       1.41950      .   S
    Zr6    O10       1.41950  1_565   S
    Zr5    O11       1.41963  1_545   S
    Zr7    O11       1.41963      .   S
    N12    O13       4.42470      .   S
    Zr3    O13       5.43556  1_545   S
    N12    O14       4.45827      .   S
    Zr2    O14       5.48828  1_455   S
    N12    O15       4.46589      .   S
    Zr1    O15       5.50598      .   S
    N12    O16       4.43008      .   S
    Zr0    O16       5.45471  1_465   S
    N12    O17       4.46564      .   S
    Zr2    O17       5.49832  1_465   S
    N12    O18       4.42413      .   S
    Zr0    O18       5.44385  1_455   S
    N12    O19       4.42414      .   S
    Zr3    O19       5.43866      .   S
    N12    O20       4.47162      .   S
    Zr1    O20       5.51269  1_565   S
    N21    O22       2.77682      .   S
    Zr0    O22       3.80753      .   S
    N21    O23       2.77245  1_554   S
    Zr2    O23       3.80627      .   S
    N24    O25       4.42313      .   S
    Zr6    O25       5.43259  1_565   S
    N24    O26       4.46723      .   S
    Zr4    O26       5.50393      .   S
    N24    O27       4.46318      .   S
    Zr7    O27       5.48866  1_565   S
    N24    O28       4.47354      .   S
    Zr4    O28       5.51790  1_545   S
    N24    O29       4.42467      .   S
    Zr5    O29       5.44040      .   S
    N24    O30       4.46386      .   S
    Zr7    O30       5.50157      .   S
    N24    O31       4.42889      .   S
    Zr6    O31       5.44527      .   S
    N24    O32       4.42723      .   S
    Zr5    O32       5.45416  1_545   S
    N33    O34       2.77674      .   S
    Zr1    O34       3.80805  1_565   S
    N33    O35       2.77160  1_554   S
    Zr3    O35       3.80639      .   S
    N36    O37       4.43049      .   S
    Zr2    O37       5.44333      .   S
    N36    O38       4.46671      .   S
    Zr0    O38       5.50538  1_565   S
    N36    O39       4.47119      .   S
    Zr3    O39       5.50477  1_545   S
    N36    O40       4.47180      .   S
    Zr0    O40       5.51410      .   S
    N36    O41       4.45932      .   S
    Zr3    O41       5.49047      .   S
    N36    O42       4.42362      .   S
    Zr2    O42       5.43533  1_565   S
    N36    O43       4.42507      .   S
    Zr1    O43       5.44516  1_565   S
    N36    O44       4.42972      .   S
    Zr1    O44       5.45573      .   S
    N45    O46       2.77391  1_556   S
    Zr6    O46       3.80992  1_565   S
    N45    O47       2.77309      .   S
    Zr4    O47       3.80618      .   S
    N48    O49       4.42799      .   S
    Zr4    O49       5.45576      .   S
    N48    O50       4.46505      .   S
    Zr6    O50       5.50353  1_565   S
    N48    O51       4.47101  1_455   S
    Zr5    O51       5.51601      .   S
    N48    O52       4.43065  1_455   S
    Zr7    O52       5.44624  1_565   S
    N48    O53       4.42322  1_455   S
    Zr7    O53       5.43255      .   S
    N48    O54       4.46147      .   S
    Zr6    O54       5.48700      .   S
    N48    O55       4.42574      .   S
    Zr4    O55       5.44098  1_545   S
    N48    O56       4.46684  1_455   S
    Zr5    O56       5.50286  1_545   S
    N57    O58       2.77469      .   S
    Zr5    O58       3.80532  1_545   S
    N57    O59       2.77235  1_556   S
    Zr7    O59       3.81097      .   S
