# CIF file generated by openbabel 2.4.90, see http://openbabel.sf.net
data_I
_chemical_name_common ''
_cell_length_a 6.254
_cell_length_b 15.845
_cell_length_c 16.644
_cell_angle_alpha 104.357
_cell_angle_beta 90.128
_cell_angle_gamma 101.256
_space_group_name_H-M_alt 'P 1'
_space_group_name_Hall 'P 1'
loop_
    _symmetry_equiv_pos_as_xyz
    x,y,z
loop_
    _atom_site_label
    _atom_site_type_symbol
    _atom_site_fract_x
    _atom_site_fract_y
    _atom_site_fract_z
    _atom_site_occupancy
    Zr0     Zr   0.38924   0.99986   0.24966   1.000
    Zr1     Zr   0.61072   0.00015   0.75032   1.000
    Zr2     Zr   0.38062   0.17484   0.31197   1.000
    Zr3     Zr   0.20636   0.82505   0.18693   1.000
    Zr4     Zr   0.61934   0.82515   0.68800   1.000
    Zr5     Zr   0.79360   0.17494   0.81306   1.000
    Zr6     Zr   0.24042   0.09910   0.29883   1.000
    Zr7     Zr   0.57496   0.18076   0.29235   1.000
    Zr8     Zr   0.14041   0.90068   0.20125   1.000
    Zr9     Zr   0.39647   0.81923   0.20487   1.000
    Zr10    Zr   0.75955   0.90088   0.70115   1.000
    Zr11    Zr   0.42500   0.81922   0.70763   1.000
    Zr12    Zr   0.85956   0.09931   0.79873   1.000
    Zr13    Zr   0.60349   0.18076   0.79512   1.000
    O14     O    0.17338   0.86287   0.19409   1.000
    O15     O    0.30142   0.82214   0.19590   1.000
    O16     O    0.26482   0.95027   0.22545   1.000
    O17     O    0.31483   0.04948   0.27425   1.000
    O18     O    0.47779   0.17780   0.30216   1.000
    O19     O    0.31052   0.13697   0.30540   1.000
    O20     O    0.68944   0.86302   0.69458   1.000
    O21     O    0.52217   0.82219   0.69782   1.000
    O22     O    0.68513   0.95052   0.72573   1.000
    O23     O    0.73514   0.04973   0.77453   1.000
    O24     O    0.69855   0.17785   0.80409   1.000
    O25     O    0.82658   0.13712   0.80590   1.000
    N26     N    0.99998   1.00000   0.49999   1.000
    O27     O    0.75214   0.00106   0.60138   1.000
    O28     O    0.24782   0.99894   0.39860   1.000
    N29     N    0.99998   1.00000   0.99999   1.000
    O30     O    0.75117   0.99915   0.89892   1.000
    O31     O    0.24878   0.00085   0.10105   1.000
    N32     N    0.99998   0.49999   0.49999   1.000
    O33     O    0.16982   0.35783   0.41649   1.000
    O34     O    0.83014   0.64216   0.58349   1.000
    N35     N    0.49999   0.49999   0.99999   1.000
    O36     O    0.31221   0.64211   0.08308   1.000
    O37     O    0.68776   0.35788   0.91689   1.000
loop_
    _geom_bond_atom_site_label_1
    _geom_bond_atom_site_label_2
    _geom_bond_distance
    _geom_bond_site_symmetry_2
    _ccdc_geom_bond_type
    Zr3    O14       0.65481      .   S
    Zr8    O14       0.65481      .   S
    Zr3    O15       0.62571      .   S
    Zr9    O15       0.62571      .   S
    Zr8    O16       0.99402      .   S
    Zr0    O16       0.99402      .   S
    Zr0    O17       0.99315  1_565   S
    Zr6    O17       0.99315      .   S
    Zr7    O18       0.62552      .   S
    Zr2    O18       0.62552      .   S
    Zr6    O19       0.65476      .   S
    Zr2    O19       0.65476      .   S
    Zr4    O20       0.65476      .   S
    Zr10   O20       0.65476      .   S
    Zr4    O21       0.62552      .   S
    Zr11   O21       0.62552      .   S
    Zr10   O22       0.99327      .   S
    Zr1    O22       0.99327  1_545   S
    Zr1    O23       0.99397      .   S
    Zr12   O23       0.99397      .   S
    Zr13   O24       0.62572      .   S
    Zr5    O24       0.62572      .   S
    Zr12   O25       0.65481      .   S
    Zr5    O25       0.65481      .   S
    N26    O27       2.29305  1_565   S
    Zr1    O27       2.63635      .   S
    N26    O28       2.29307  1_655   S
    Zr0    O28       2.63633      .   S
    N29    O30       2.28471      .   S
    Zr1    O30       2.62767  1_545   S
    N29    O31       2.28468  1_666   S
    Zr0    O31       2.62772  1_565   S
    N32    O33       2.74268  1_655   S
    Zr2    O33       3.48889      .   S
    N32    O34       2.74267      .   S
    Zr4    O34       3.48888      .   S
    N35    O36       2.80315  1_556   S
    Zr3    O36       3.17762      .   S
    N35    O37       2.80313      .   S
    Zr5    O37       3.17757      .   S
