# CIF file generated by openbabel 2.4.90, see http://openbabel.sf.net
data_I
_chemical_name_common ''
_cell_length_a 6.254
_cell_length_b 15.845
_cell_length_c 16.644
_cell_angle_alpha 104.357
_cell_angle_beta 90.128
_cell_angle_gamma 101.256
_space_group_name_H-M_alt 'P 1'
_space_group_name_Hall 'P 1'
loop_
    _symmetry_equiv_pos_as_xyz
    x,y,z
loop_
    _atom_site_label
    _atom_site_type_symbol
    _atom_site_fract_x
    _atom_site_fract_y
    _atom_site_fract_z
    _atom_site_occupancy
    N0      N    0.99998   1.00000   0.49999   1.000
    N1      N    0.99998   1.00000   0.99999   1.000
    N2      N    0.99998   0.49999   0.49999   1.000
    N3      N    0.49999   0.49999   0.99999   1.000
    Zr4     Zr   0.66732   0.00006   0.75057   1.000
    O5      O    0.74873   0.82111   0.66703   1.000
    O6      O    0.67754   0.17897   0.83373   1.000
    O7      O    0.70925   0.99960   0.82475   1.000
    O8      O    0.70973   0.00056   0.67597   1.000
    Zr9     Zr   0.33264   0.99993   0.24941   1.000
    O10     O    0.32242   0.82102   0.16625   1.000
    O11     O    0.25123   0.17888   0.33295   1.000
    O12     O    0.29071   0.00039   0.17523   1.000
    O13     O    0.29023   0.99944   0.32401   1.000
loop_
    _geom_bond_atom_site_label_1
    _geom_bond_atom_site_label_2
    _geom_bond_distance
    _geom_bond_site_symmetry_2
    _ccdc_geom_bond_type
    Zr4    O5        2.97384  1_545   S
    N2     O5        5.67561      .   S
    Zr4    O6        2.81766      .   S
    N3     O6        5.47744      .   S
    Zr4    O7        1.26360  1_545   S
    N1     O7        3.43162      .   S
    Zr4    O8        1.27183      .   S
    N0     O8        3.44844  1_565   S
    Zr9    O10       2.81769      .   S
    N3     O10       5.47749  1_556   S
    Zr9    O11       2.97384  1_565   S
    N2     O11       5.67561  1_655   S
    Zr9    O12       1.26365  1_565   S
    N1     O12       3.43166  1_666   S
    Zr9    O13       1.27180      .   S
    N0     O13       3.44845  1_655   S
