# CIF file generated by openbabel 2.4.90, see http://openbabel.sf.net
data_I
_chemical_name_common ''
_cell_length_a 23.02
_cell_length_b 14.98
_cell_length_c 14.982
_cell_angle_alpha 90.008
_cell_angle_beta 89.98
_cell_angle_gamma 90.016
_space_group_name_H-M_alt 'P 1'
_space_group_name_Hall 'P 1'
loop_
    _symmetry_equiv_pos_as_xyz
    x,y,z
loop_
    _atom_site_label
    _atom_site_type_symbol
    _atom_site_fract_x
    _atom_site_fract_y
    _atom_site_fract_z
    _atom_site_occupancy
    Zn0     Zn   0.87502   0.88716   0.11286   1.000
    Zn1     Zn   0.12499   0.11287   0.88712   1.000
    Zn2     Zn   0.62500   0.11288   0.88712   1.000
    Zn3     Zn   0.25000   0.38715   0.38712   1.000
    Zn4     Zn   0.75001   0.38715   0.38712   1.000
    Zn5     Zn   1.00000   0.61289   0.61284   1.000
    Zn6     Zn   0.50001   0.61288   0.61284   1.000
    Zn7     Zn   0.37501   0.88716   0.11286   1.000
    Ts8     Ts   0.87894   0.93474   0.11399   1.000
    Ts9     Ts   0.87110   0.88603   0.06528   1.000
    Ts10    Ts   0.87251   0.84004   0.11331   1.000
    Ts11    Ts   0.90498   0.87904   0.10792   1.000
    Ts12    Ts   0.87752   0.88671   0.15998   1.000
    Ts13    Ts   0.84506   0.89210   0.12099   1.000
    Ts14    Ts   0.12891   0.06530   0.88598   1.000
    Ts15    Ts   0.12107   0.11400   0.93471   1.000
    Ts16    Ts   0.12249   0.15999   0.88665   1.000
    Ts17    Ts   0.15495   0.12100   0.89206   1.000
    Ts18    Ts   0.12751   0.11335   0.84000   1.000
    Ts19    Ts   0.09504   0.10793   0.87900   1.000
    Ts20    Ts   0.62891   0.06531   0.88598   1.000
    Ts21    Ts   0.62108   0.11401   0.93471   1.000
    Ts22    Ts   0.62250   0.16000   0.88667   1.000
    Ts23    Ts   0.65496   0.12101   0.89206   1.000
    Ts24    Ts   0.62751   0.11336   0.84000   1.000
    Ts25    Ts   0.59505   0.10793   0.87900   1.000
    Ts26    Ts   0.25392   0.38602   0.43470   1.000
    Ts27    Ts   0.24609   0.43473   0.38600   1.000
    Ts28    Ts   0.24750   0.38668   0.34000   1.000
    Ts29    Ts   0.27996   0.39209   0.37899   1.000
    Ts30    Ts   0.25251   0.34003   0.38665   1.000
    Ts31    Ts   0.22005   0.37902   0.39207   1.000
    Ts32    Ts   0.75393   0.38602   0.43470   1.000
    Ts33    Ts   0.74609   0.43473   0.38598   1.000
    Ts34    Ts   0.74751   0.38668   0.34000   1.000
    Ts35    Ts   0.77997   0.39209   0.37899   1.000
    Ts36    Ts   0.75252   0.34003   0.38665   1.000
    Ts37    Ts   0.72005   0.37902   0.39207   1.000
    Ts38    Ts   0.00391   0.61402   0.56525   1.000
    Ts39    Ts   0.99609   0.56530   0.61398   1.000
    Ts40    Ts   0.99749   0.61336   0.65989   1.000
    Ts41    Ts   0.02995   0.60795   0.62096   1.000
    Ts42    Ts   0.00251   0.66001   0.61331   1.000
    Ts43    Ts   0.97005   0.62100   0.60789   1.000
    Ts44    Ts   0.50392   0.61402   0.56525   1.000
    Ts45    Ts   0.49609   0.56529   0.61397   1.000
    Ts46    Ts   0.49749   0.61335   0.65996   1.000
    Ts47    Ts   0.52996   0.60795   0.62096   1.000
    Ts48    Ts   0.50252   0.66000   0.61331   1.000
    Ts49    Ts   0.47005   0.62100   0.60790   1.000
    Ts50    Ts   0.37893   0.93474   0.11399   1.000
    Ts51    Ts   0.37109   0.88603   0.06528   1.000
    Ts52    Ts   0.37250   0.84004   0.11333   1.000
    Ts53    Ts   0.40497   0.87904   0.10792   1.000
    Ts54    Ts   0.37752   0.88671   0.15998   1.000
    Ts55    Ts   0.34505   0.89210   0.12099   1.000
loop_
    _geom_bond_atom_site_label_1
    _geom_bond_atom_site_label_2
    _geom_bond_distance
    _geom_bond_site_symmetry_2
    _ccdc_geom_bond_type
    Zn0    Ts8       0.71853      .   S
    Zn0    Ts9       0.71875      .   S
    Zn0    Ts10      0.70830      .   S
    Zn0    Ts11      0.70415      .   S
    Zn0    Ts12      0.70831      .   S
    Zn0    Ts13      0.70413      .   S
    Zn1    Ts14      0.71849      .   S
    Zn1    Ts15      0.71885      .   S
    Zn1    Ts16      0.70826      .   S
    Zn1    Ts17      0.70412      .   S
    Zn1    Ts18      0.70833      .   S
    Zn1    Ts19      0.70416      .   S
    Zn2    Ts20      0.71846      .   S
    Zn2    Ts21      0.71884      .   S
    Zn2    Ts22      0.70826      .   S
    Zn2    Ts23      0.70414      .   S
    Zn2    Ts24      0.70839      .   S
    Zn2    Ts25      0.70416      .   S
    Zn3    Ts26      0.71876      .   S
    Zn3    Ts27      0.71867      .   S
    Zn3    Ts28      0.70831      .   S
    Zn3    Ts29      0.70412      .   S
    Zn3    Ts30      0.70829      .   S
    Zn3    Ts31      0.70411      .   S
    Zn4    Ts32      0.71871      .   S
    Zn4    Ts33      0.71868      .   S
    Zn4    Ts34      0.70836      .   S
    Zn4    Ts35      0.70412      .   S
    Zn4    Ts36      0.70829      .   S
    Zn4    Ts37      0.70412      .   S
    Zn5    Ts38      0.71879  1_655   S
    Zn5    Ts39      0.71868      .   S
    Zn5    Ts40      0.70733      .   S
    Zn5    Ts41      0.70416  1_655   S
    Zn5    Ts42      0.70828  1_655   S
    Zn5    Ts43      0.70406      .   S
    Zn6    Ts44      0.71879      .   S
    Zn6    Ts45      0.71874      .   S
    Zn6    Ts46      0.70829      .   S
    Zn6    Ts47      0.70415      .   S
    Zn6    Ts48      0.70829      .   S
    Zn6    Ts49      0.70417      .   S
    Zn7    Ts50      0.71854      .   S
    Zn7    Ts51      0.71875      .   S
    Zn7    Ts52      0.70830      .   S
    Zn7    Ts53      0.70416      .   S
    Zn7    Ts54      0.70831      .   S
    Zn7    Ts55      0.70413      .   S
