# CIF file generated by openbabel 2.4.90, see http://openbabel.sf.net
data_I
_chemical_name_common ''
_cell_length_a 23.02
_cell_length_b 14.98
_cell_length_c 14.982
_cell_angle_alpha 90.008
_cell_angle_beta 89.98
_cell_angle_gamma 90.016
_space_group_name_H-M_alt 'P 1'
_space_group_name_Hall 'P 1'
loop_
    _symmetry_equiv_pos_as_xyz
    x,y,z
loop_
    _atom_site_label
    _atom_site_type_symbol
    _atom_site_fract_x
    _atom_site_fract_y
    _atom_site_fract_z
    _atom_site_occupancy
    N0      N    0.98573   0.67206   0.23405   1.000
    N1      N    0.23574   0.32801   0.76585   1.000
    N2      N    0.13925   0.17202   0.26587   1.000
    N3      N    0.38928   0.82799   0.73411   1.000
    N4      N    0.26426   0.76590   0.32798   1.000
    N5      N    0.73575   0.32801   0.76585   1.000
    N6      N    0.76426   0.76590   0.32797   1.000
    N7      N    0.63926   0.17202   0.26587   1.000
    N8      N    0.86077   0.26590   0.17199   1.000
    N9      N    0.36076   0.26590   0.17200   1.000
    N10     N    0.01429   0.23413   0.67203   1.000
    N11     N    0.61072   0.73416   0.82790   1.000
    N12     N    0.51429   0.23410   0.67202   1.000
    N13     N    0.48573   0.67206   0.23410   1.000
    N14     N    0.88929   0.82799   0.73411   1.000
    N15     N    0.11072   0.73415   0.82792   1.000
    Zr16    Zr   0.75001   0.38715   0.38712   1.000
    O17     O    0.75211   0.49968   0.37191   1.000
    O18     O    0.74791   0.37194   0.49964   1.000
    Zr19    Zr   0.87502   0.88716   0.11286   1.000
    O20     O    0.87293   0.99969   0.12807   1.000
    O21     O    0.87712   0.87195   0.00033   1.000
    Zr22    Zr   0.37501   0.88716   0.11286   1.000
    O23     O    0.37711   0.87195   0.00033   1.000
    O24     O    0.37292   0.99969   0.12807   1.000
    Zr25    Zr   0.12499   0.11287   0.88712   1.000
    O26     O    0.12709   0.12808   0.99965   1.000
    O27     O    0.12289   0.00035   0.87189   1.000
    Zr28    Zr   0.62500   0.11288   0.88712   1.000
    O29     O    0.62710   0.12809   0.99965   1.000
    O30     O    0.62290   0.00036   0.87189   1.000
    Zr31    Zr   0.50001   0.61288   0.61284   1.000
    O32     O    0.50211   0.50034   0.62806   1.000
    O33     O    0.49791   0.62810   0.50031   1.000
    Zr34    Zr   1.00000   0.61289   0.61284   1.000
    O35     O    0.00210   0.50035   0.62806   1.000
    O36     O    0.99790   0.62810   0.50030   1.000
    Zr37    Zr   0.25000   0.38715   0.38712   1.000
    O38     O    0.24791   0.37194   0.49965   1.000
    O39     O    0.25210   0.49968   0.37191   1.000
    O40     O    0.46718   0.67702   0.64232   1.000
    O41     O    0.53283   0.64236   0.67696   1.000
    O42     O    0.65784   0.17702   0.85764   1.000
    O43     O    0.34218   0.85769   0.17700   1.000
    O44     O    0.40784   0.82303   0.14233   1.000
    O45     O    0.84218   0.85769   0.17700   1.000
    O46     O    0.90784   0.82303   0.14231   1.000
    O47     O    0.71718   0.32301   0.35765   1.000
    O48     O    0.78285   0.35768   0.32298   1.000
    O49     O    0.59218   0.14235   0.82299   1.000
    O50     O    0.21717   0.32301   0.35765   1.000
    O51     O    0.15783   0.17702   0.85764   1.000
    O52     O    0.09217   0.14235   0.82299   1.000
    O53     O    0.28284   0.35768   0.32298   1.000
    O54     O    0.03282   0.64236   0.67695   1.000
    O55     O    0.96718   0.67702   0.64232   1.000
loop_
    _geom_bond_atom_site_label_1
    _geom_bond_atom_site_label_2
    _geom_bond_distance
    _geom_bond_site_symmetry_2
    _ccdc_geom_bond_type
    Zr16   O17       1.70177      .   S
    N6     O17       4.05167      .   S
    Zr16   O18       1.70184      .   S
    N5     O18       4.05187      .   S
    Zr19   O20       1.70161      .   S
    N8     O20       4.05144  1_545   S
    Zr19   O21       1.70192      .   S
    N14    O21       4.05204  1_556   S
    Zr22   O23       1.70192      .   S
    N3     O23       4.05204  1_556   S
    Zr22   O24       1.70161      .   S
    N9     O24       4.05146  1_545   S
    Zr25   O26       1.70198      .   S
    N2     O26       4.05210  1_554   S
    Zr25   O27       1.70157      .   S
    N15    O27       4.05139  1_565   S
    Zr28   O29       1.70198      .   S
    N7     O29       4.05209  1_554   S
    Zr28   O30       1.70155      .   S
    N11    O30       4.05137  1_565   S
    Zr31   O32       1.70195      .   S
    N12    O32       4.05215      .   S
    Zr31   O33       1.70201      .   S
    N13    O33       4.05225      .   S
    Zr34   O35       1.70188  1_655   S
    N10    O35       4.05199      .   S
    Zr34   O36       1.70219      .   S
    N0     O36       4.05279      .   S
    Zr37   O38       1.70188      .   S
    N1     O38       4.05191      .   S
    Zr37   O39       1.70175      .   S
    N4     O39       4.05166      .   S
    Zr31   O40       1.29969      .   S
    N3     O40       3.19707      .   S
    Zr31   O41       1.29965      .   S
    N11    O41       3.19695      .   S
    N5     O42       3.19701      .   S
    Zr28   O42       1.29961      .   S
    Zr22   O43       1.29964      .   S
    N4     O43       3.19702      .   S
    Zr22   O44       1.29991      .   S
    N13    O44       3.19767      .   S
    Zr19   O45       1.29964      .   S
    N6     O45       3.19700      .   S
    Zr19   O46       1.29980      .   S
    N0     O46       3.19740      .   S
    N7     O47       3.19718      .   S
    Zr16   O47       1.29969      .   S
    N8     O48       3.19721      .   S
    Zr16   O48       1.29973      .   S
    Zr28   O49       1.29995      .   S
    N12    O49       3.19767      .   S
    N2     O50       3.19718      .   S
    Zr37   O50       1.29969      .   S
    Zr25   O51       1.29963      .   S
    N1     O51       3.19699      .   S
    Zr25   O52       1.29992      .   S
    N10    O52       3.19766      .   S
    Zr37   O53       1.29971      .   S
    N9     O53       3.19717      .   S
    N15    O54       3.19714      .   S
    Zr34   O54       1.29957  1_655   S
    Zr34   O55       1.29959      .   S
    N14    O55       3.19691      .   S
