# CIF file generated by openbabel 2.4.90, see http://openbabel.sf.net
data_I
_chemical_name_common ''
_cell_length_a 23.02
_cell_length_b 14.98
_cell_length_c 14.982
_cell_angle_alpha 90.008
_cell_angle_beta 89.98
_cell_angle_gamma 90.016
_space_group_name_H-M_alt 'P 1'
_space_group_name_Hall 'P 1'
loop_
    _symmetry_equiv_pos_as_xyz
    x,y,z
loop_
    _atom_site_label
    _atom_site_type_symbol
    _atom_site_fract_x
    _atom_site_fract_y
    _atom_site_fract_z
    _atom_site_occupancy
    Zr0     Zr   0.37501   0.88716   0.11286   1.000
    Zr1     Zr   0.87502   0.88716   0.11286   1.000
    Zr2     Zr   0.12499   0.11287   0.88712   1.000
    Zr3     Zr   0.62500   0.11288   0.88712   1.000
    Zr4     Zr   0.25000   0.38715   0.38712   1.000
    Zr5     Zr   0.75001   0.38715   0.38712   1.000
    Zr6     Zr   1.00000   0.61289   0.61284   1.000
    Zr7     Zr   0.50001   0.61288   0.61284   1.000
    N8      N    0.98573   0.67206   0.23405   1.000
    O9      O    0.99580   0.64332   0.38775   1.000
    O10     O    0.92849   0.74427   0.17379   1.000
    O11     O    0.95284   0.77352   0.16975   1.000
    N12     N    0.23574   0.32801   0.76585   1.000
    O13     O    0.17849   0.25578   0.82613   1.000
    O14     O    0.20283   0.22654   0.83019   1.000
    O15     O    0.24581   0.35673   0.61217   1.000
    N16     N    0.13925   0.17202   0.26587   1.000
    O17     O    0.12918   0.14329   0.11219   1.000
    O18     O    0.19651   0.24424   0.32614   1.000
    O19     O    0.17216   0.27349   0.33021   1.000
    N20     N    0.38928   0.82799   0.73411   1.000
    O21     O    0.37921   0.85673   0.88780   1.000
    O22     O    0.42218   0.72652   0.66977   1.000
    O23     O    0.44653   0.75578   0.67383   1.000
    N24     N    0.26426   0.76590   0.32798   1.000
    O25     O    0.25419   0.61221   0.35671   1.000
    O26     O    0.29717   0.83024   0.22652   1.000
    O27     O    0.32151   0.82619   0.25576   1.000
    N28     N    0.73575   0.32801   0.76585   1.000
    O29     O    0.70284   0.22654   0.83019   1.000
    O30     O    0.67850   0.25578   0.82614   1.000
    O31     O    0.74582   0.35673   0.61217   1.000
    N32     N    0.76426   0.76590   0.32797   1.000
    O33     O    0.75420   0.61221   0.35669   1.000
    O34     O    0.79717   0.83024   0.22651   1.000
    O35     O    0.82152   0.82619   0.25575   1.000
    N36     N    0.63926   0.17202   0.26587   1.000
    O37     O    0.62919   0.14329   0.11219   1.000
    O38     O    0.69652   0.24424   0.32614   1.000
    O39     O    0.67217   0.27349   0.33021   1.000
    N40     N    0.86077   0.26590   0.17199   1.000
    O41     O    0.80351   0.32617   0.24422   1.000
    O42     O    0.82786   0.33023   0.27346   1.000
    O43     O    0.87084   0.11221   0.14327   1.000
    N44     N    0.36076   0.26590   0.17200   1.000
    O45     O    0.30350   0.32617   0.24422   1.000
    O46     O    0.32785   0.33023   0.27346   1.000
    O47     O    0.37083   0.11221   0.14328   1.000
    N48     N    0.01429   0.23413   0.67203   1.000
    O49     O    0.00421   0.38782   0.64329   1.000
    O50     O    0.07153   0.17385   0.74423   1.000
    O51     O    0.04717   0.16979   0.77348   1.000
    N52     N    0.61072   0.73416   0.82790   1.000
    O53     O    0.57783   0.66982   0.72646   1.000
    O54     O    0.55348   0.67387   0.75571   1.000
    O55     O    0.62080   0.88784   0.85665   1.000
    N56     N    0.51429   0.23410   0.67202   1.000
    O57     O    0.54718   0.16978   0.77348   1.000
    O58     O    0.50421   0.38780   0.64328   1.000
    O59     O    0.57153   0.17385   0.74423   1.000
    N60     N    0.48573   0.67206   0.23410   1.000
    O61     O    0.42849   0.74427   0.17384   1.000
    O62     O    0.49581   0.64332   0.38778   1.000
    O63     O    0.45284   0.77352   0.16977   1.000
    N64     N    0.88929   0.82799   0.73411   1.000
    O65     O    0.87922   0.85673   0.88780   1.000
    O66     O    0.94653   0.75578   0.67382   1.000
    O67     O    0.92218   0.72653   0.66976   1.000
    N68     N    0.11072   0.73415   0.82792   1.000
    O69     O    0.07782   0.66981   0.72647   1.000
    O70     O    0.05348   0.67387   0.75567   1.000
    O71     O    0.12079   0.88783   0.85666   1.000
loop_
    _geom_bond_atom_site_label_1
    _geom_bond_atom_site_label_2
    _geom_bond_distance
    _geom_bond_site_symmetry_2
    _ccdc_geom_bond_type
    N8     O9        2.35429      .   S
    Zr6    O9        3.40438      .   S
    N8     O10       1.92960      .   S
    Zr1    O10       2.63315      .   S
    N8     O11       1.95270      .   S
    Zr1    O11       2.61481      .   S
    N12    O13       1.92923      .   S
    Zr2    O13       2.63293      .   S
    N12    O14       1.95260      .   S
    Zr2    O14       2.61439      .   S
    N12    O15       2.35372      .   S
    Zr4    O15       3.40376      .   S
    N16    O17       2.35381      .   S
    Zr2    O17       3.40397  1_556   S
    N16    O18       1.92945      .   S
    Zr4    O18       2.63298      .   S
    N16    O19       1.95264      .   S
    Zr4    O19       2.61457      .   S
    N20    O21       2.35381      .   S
    Zr0    O21       3.40384  1_554   S
    N20    O22       1.95258      .   S
    Zr7    O22       2.61453      .   S
    N20    O23       1.92929      .   S
    Zr7    O23       2.63300      .   S
    N24    O25       2.35360      .   S
    Zr4    O25       3.40350      .   S
    N24    O26       1.95258      .   S
    Zr0    O26       2.61443      .   S
    N24    O27       1.92929      .   S
    Zr0    O27       2.63292      .   S
    N28    O29       1.95259      .   S
    Zr3    O29       2.61438      .   S
    N28    O30       1.92933      .   S
    Zr3    O30       2.63285      .   S
    N28    O31       2.35371      .   S
    Zr5    O31       3.40368      .   S
    N32    O33       2.35358      .   S
    Zr5    O33       3.40355      .   S
    N32    O34       1.95256      .   S
    Zr1    O34       2.61443      .   S
    N32    O35       1.92929      .   S
    Zr1    O35       2.63291      .   S
    N36    O37       2.35380      .   S
    Zr3    O37       3.40396  1_556   S
    N36    O38       1.92945      .   S
    Zr5    O38       2.63298      .   S
    N36    O39       1.95263      .   S
    Zr5    O39       2.61457      .   S
    N40    O41       1.92943      .   S
    Zr5    O41       2.63308      .   S
    N40    O42       1.95264      .   S
    Zr5    O42       2.61463      .   S
    N40    O43       2.35353      .   S
    Zr1    O43       3.40321  1_565   S
    N44    O45       1.92941      .   S
    Zr4    O45       2.63302      .   S
    N44    O46       1.95261      .   S
    Zr4    O46       2.61460      .   S
    N44    O47       2.35353      .   S
    Zr0    O47       3.40322  1_565   S
    N48    O49       2.35379      .   S
    Zr6    O49       3.40375  1_655   S
    N48    O50       1.92964      .   S
    Zr2    O50       2.63347      .   S
    N48    O51       1.95292      .   S
    Zr2    O51       2.61498      .   S
    N52    O53       1.95246      .   S
    Zr7    O53       2.61448      .   S
    N52    O54       1.92924      .   S
    Zr7    O54       2.63291      .   S
    N52    O55       2.35351      .   S
    Zr3    O55       3.40310  1_545   S
    N56    O57       1.95292      .   S
    Zr3    O57       2.61501      .   S
    N56    O58       2.35389      .   S
    Zr7    O58       3.40389      .   S
    N56    O59       1.92960      .   S
    Zr3    O59       2.63353      .   S
    N60    O61       1.92969      .   S
    Zr0    O61       2.63342      .   S
    N60    O62       2.35393      .   S
    Zr7    O62       3.40401      .   S
    N60    O63       1.95292      .   S
    Zr0    O63       2.61498      .   S
    N64    O65       2.35381      .   S
    Zr1    O65       3.40384  1_554   S
    N64    O66       1.92917      .   S
    Zr6    O66       2.63287      .   S
    N64    O67       1.95258      .   S
    Zr6    O67       2.61427      .   S
    N68    O69       1.95253      .   S
    Zr6    O69       2.61453  1_655   S
    N68    O70       1.92958      .   S
    Zr6    O70       2.63247  1_655   S
    N68    O71       2.35351      .   S
    Zr2    O71       3.40313  1_545   S
