# CIF file generated by openbabel 2.4.90, see http://openbabel.sf.net
data_I
_chemical_name_common ''
_cell_length_a 15.604
_cell_length_b 18.904
_cell_length_c 19.853
_cell_angle_alpha 88.505
_cell_angle_beta 90.614
_cell_angle_gamma 90.146
_space_group_name_H-M_alt 'P 1'
_space_group_name_Hall 'P 1'
loop_
    _symmetry_equiv_pos_as_xyz
    x,y,z
loop_
    _atom_site_label
    _atom_site_type_symbol
    _atom_site_fract_x
    _atom_site_fract_y
    _atom_site_fract_z
    _atom_site_occupancy
    C0      C    0.29364   0.67804   0.48356   1.000
    C1      C    0.09216   0.90344   0.50305   1.000
    C2      C    0.79401   0.82234   0.51408   1.000
    C3      C    0.59283   0.59555   0.49787   1.000
    C4      C    0.70634   0.32195   0.51646   1.000
    C5      C    0.90783   0.09654   0.49697   1.000
    C6      C    0.20597   0.17764   0.48594   1.000
    C7      C    0.40715   0.40443   0.50215   1.000
