# CIF file generated by openbabel 2.4.90, see http://openbabel.sf.net
data_I
_chemical_name_common ''
_cell_length_a 15.604
_cell_length_b 18.904
_cell_length_c 19.853
_cell_angle_alpha 88.505
_cell_angle_beta 90.614
_cell_angle_gamma 90.146
_space_group_name_H-M_alt 'P 1'
_space_group_name_Hall 'P 1'
loop_
    _symmetry_equiv_pos_as_xyz
    x,y,z
loop_
    _atom_site_label
    _atom_site_type_symbol
    _atom_site_fract_x
    _atom_site_fract_y
    _atom_site_fract_z
    _atom_site_occupancy
    Zr0     Zr   0.89201   0.94126   0.51409   1.000
    Zr1     Zr   0.38968   0.55848   0.48537   1.000
    Zr2     Zr   0.10798   0.05872   0.48593   1.000
    Zr3     Zr   0.61031   0.44151   0.51465   1.000
    Zr4     Zr   0.29364   0.67804   0.48356   1.000
    Zr5     Zr   0.09216   0.90344   0.50305   1.000
    Zr6     Zr   0.79401   0.82234   0.51408   1.000
    Zr7     Zr   0.59283   0.59555   0.49787   1.000
    Zr8     Zr   0.70634   0.32195   0.51646   1.000
    Zr9     Zr   0.90783   0.09654   0.49697   1.000
    Zr10    Zr   0.20597   0.17764   0.48594   1.000
    Zr11    Zr   0.40715   0.40443   0.50215   1.000
    Zr12    Zr   0.01815   0.91061   0.52767   1.000
    Zr13    Zr   0.14131   0.95470   0.48410   1.000
    Zr14    Zr   0.36727   0.70400   0.47492   1.000
    Zr15    Zr   0.27729   0.61112   0.48894   1.000
    Zr16    Zr   0.51775   0.58660   0.47478   1.000
    Zr17    Zr   0.64426   0.54531   0.51608   1.000
    Zr18    Zr   0.86770   0.79628   0.52275   1.000
    Zr19    Zr   0.77806   0.88925   0.50843   1.000
    Zr20    Zr   0.98184   0.08938   0.47235   1.000
    Zr21    Zr   0.85868   0.04528   0.51586   1.000
    Zr22    Zr   0.63271   0.29599   0.52500   1.000
    Zr23    Zr   0.72271   0.38887   0.51107   1.000
    Zr24    Zr   0.48223   0.41339   0.52524   1.000
    Zr25    Zr   0.35572   0.45467   0.48393   1.000
    Zr26    Zr   0.13228   0.20370   0.47727   1.000
    Zr27    Zr   0.22192   0.11074   0.49158   1.000
    O28     O    0.04491   0.07405   0.47914   1.000
    O29     O    0.94483   0.09296   0.48466   1.000
    O30     O    0.45371   0.57254   0.48007   1.000
    O31     O    0.55529   0.59107   0.48633   1.000
    O32     O    0.33046   0.69102   0.47924   1.000
    O33     O    0.16913   0.19067   0.48160   1.000
    O34     O    0.28547   0.64458   0.48625   1.000
    O35     O    0.37270   0.50657   0.48465   1.000
    O36     O    0.38144   0.42955   0.49304   1.000
    O37     O    0.12465   0.00671   0.48501   1.000
    O38     O    0.11673   0.92907   0.49357   1.000
    O39     O    0.33348   0.58480   0.48716   1.000
    O40     O    0.16495   0.08473   0.48876   1.000
    O41     O    0.21395   0.14419   0.48876   1.000
    O42     O    0.88326   0.07091   0.50641   1.000
    O43     O    0.61855   0.57043   0.50697   1.000
    O44     O    0.44469   0.40891   0.51369   1.000
    O45     O    0.05515   0.90703   0.51536   1.000
    O46     O    0.78604   0.85580   0.51126   1.000
    O47     O    0.83503   0.91526   0.51126   1.000
    O48     O    0.66651   0.41519   0.51286   1.000
    O49     O    0.71452   0.35541   0.51376   1.000
    O50     O    0.83086   0.80931   0.51842   1.000
    O51     O    0.87534   0.99327   0.51497   1.000
    O52     O    0.95508   0.92594   0.52088   1.000
    O53     O    0.62729   0.49341   0.51537   1.000
    O54     O    0.54627   0.42745   0.51994   1.000
    O55     O    0.66953   0.30897   0.52073   1.000
    N56     N    0.90431   0.92333   0.01573   1.000
    O57     O    0.90242   0.93018   0.23777   1.000
    O58     O    0.89857   0.93125   0.79258   1.000
    N59     N    0.40411   0.57657   0.98375   1.000
    O60     O    0.40137   0.56976   0.76171   1.000
    O61     O    0.39775   0.56852   0.20688   1.000
    N62     N    0.59587   0.42341   0.01624   1.000
    O63     O    0.59861   0.43022   0.23830   1.000
    O64     O    0.60224   0.43146   0.79313   1.000
    N65     N    0.86821   0.24700   0.49817   1.000
    O66     O    0.87944   0.18983   0.49863   1.000
    O67     O    0.80593   0.27250   0.50582   1.000
    N68     N    0.09568   0.07665   0.98426   1.000
    O69     O    0.09757   0.06980   0.76223   1.000
    O70     O    0.10142   0.06873   0.20743   1.000
    N71     N    0.63137   0.74654   0.49732   1.000
    O72     O    0.62049   0.68924   0.49842   1.000
    O73     O    0.69395   0.77242   0.50436   1.000
    N74     N    0.13178   0.75299   0.50185   1.000
    O75     O    0.12054   0.81015   0.50139   1.000
    O76     O    0.19406   0.72749   0.49419   1.000
    N77     N    0.36861   0.25344   0.50257   1.000
    O78     O    0.30604   0.22757   0.49559   1.000
    O79     O    0.37949   0.31075   0.50154   1.000
loop_
    _geom_bond_atom_site_label_1
    _geom_bond_atom_site_label_2
    _geom_bond_distance
    _geom_bond_site_symmetry_2
    _ccdc_geom_bond_type
    Zr20   O28       1.03314  1_655   S
    Zr2    O28       1.03314      .   S
    Zr20   O29       0.63387      .   S
    Zr9    O29       0.63387      .   S
    Zr16   O30       1.03904      .   S
    Zr1    O30       1.03904      .   S
    Zr16   O31       0.63303      .   S
    Zr7    O31       0.63303      .   S
    Zr14   O32       0.62991      .   S
    Zr4    O32       0.62991      .   S
    Zr26   O33       0.63025      .   S
    Zr10   O33       0.63025      .   S
    Zr4    O34       0.64592      .   S
    Zr15   O34       0.64592      .   S
    Zr25   O35       1.01606      .   S
    Zr1    O35       1.01606      .   S
    Zr25   O36       0.64353      .   S
    Zr11   O36       0.64353      .   S
    Zr13   O37       1.01832  1_565   S
    Zr2    O37       1.01832      .   S
    Zr13   O38       0.64263      .   S
    Zr5    O38       0.64263      .   S
    Zr1    O39       1.01069      .   S
    Zr15   O39       1.01069      .   S
    Zr2    O40       1.01650      .   S
    Zr27   O40       1.01650      .   S
    Zr10   O41       0.64574      .   S
    Zr27   O41       0.64574      .   S
    Zr9    O42       0.64247      .   S
    Zr21   O42       0.64247      .   S
    Zr7    O43       0.64353      .   S
    Zr17   O43       0.64353      .   S
    Zr11   O44       0.63301      .   S
    Zr24   O44       0.63301      .   S
    Zr5    O45       0.63386      .   S
    Zr12   O45       0.63386      .   S
    Zr19   O46       0.64575      .   S
    Zr6    O46       0.64575      .   S
    Zr19   O47       1.01651      .   S
    Zr0    O47       1.01651      .   S
    Zr23   O48       1.01074      .   S
    Zr3    O48       1.01074      .   S
    Zr23   O49       0.64592      .   S
    Zr8    O49       0.64592      .   S
    Zr6    O50       0.63025      .   S
    Zr18   O50       0.63025      .   S
    Zr0    O51       1.01827      .   S
    Zr21   O51       1.01827  1_545   S
    Zr0    O52       1.03309      .   S
    Zr12   O52       1.03309  1_455   S
    Zr3    O53       1.01602      .   S
    Zr17   O53       1.01602      .   S
    Zr3    O54       1.03907      .   S
    Zr24   O54       1.03907      .   S
    Zr8    O55       0.62979      .   S
    Zr22   O55       0.62979      .   S
    N56    O57       4.41387      .   S
    Zr0    O57       5.49931      .   S
    N56    O58       4.42881  1_554   S
    Zr0    O58       5.52706      .   S
    N59    O60       4.41311      .   S
    Zr1    O60       5.49692      .   S
    N59    O61       4.43059  1_556   S
    Zr1    O61       5.53002      .   S
    N62    O63       4.41339      .   S
    Zr3    O63       5.49720      .   S
    N62    O64       4.43031  1_554   S
    Zr3    O64       5.52974      .   S
    N65    O66       1.09492      .   S
    Zr9    O66       1.82073      .   S
    N65    O67       1.09973      .   S
    Zr8    O67       1.83246      .   S
    N68    O69       4.41362      .   S
    Zr2    O69       5.49906      .   S
    N68    O70       4.42906  1_556   S
    Zr2    O70       5.52731      .   S
    N71    O72       1.09571      .   S
    Zr7    O72       1.82212      .   S
    N71    O73       1.10032      .   S
    Zr6    O73       1.83342      .   S
    N74    O75       1.09494      .   S
    Zr5    O75       1.82075      .   S
    N74    O76       1.09969      .   S
    Zr4    O76       1.83242      .   S
    N77    O78       1.10011      .   S
    Zr10   O78       1.83323      .   S
    N77    O79       1.09573      .   S
    Zr11   O79       1.82218      .   S
