# CIF file generated by openbabel 2.4.90, see http://openbabel.sf.net
data_I
_chemical_name_common ''
_cell_length_a 15.604
_cell_length_b 18.904
_cell_length_c 19.853
_cell_angle_alpha 88.505
_cell_angle_beta 90.614
_cell_angle_gamma 90.146
_space_group_name_H-M_alt 'P 1'
_space_group_name_Hall 'P 1'
loop_
    _symmetry_equiv_pos_as_xyz
    x,y,z
loop_
    _atom_site_label
    _atom_site_type_symbol
    _atom_site_fract_x
    _atom_site_fract_y
    _atom_site_fract_z
    _atom_site_occupancy
    C0      C    0.89201   0.94126   0.51409   1.000
    C1      C    0.38968   0.55848   0.48537   1.000
    C2      C    0.10798   0.05872   0.48593   1.000
    C3      C    0.61031   0.44151   0.51465   1.000
    C4      C    0.95243   0.82588   0.75283   1.000
    C5      C    0.94404   0.80767   0.29040   1.000
    C6      C    0.11380   0.65363   0.50964   1.000
    C7      C    0.94398   0.83608   0.62612   1.000
    C8      C    0.84749   0.03693   0.75800   1.000
    C9      C    0.01337   0.76719   0.52006   1.000
    C10     C    0.88026   0.02846   0.26099   1.000
    C11     C    0.11796   0.88307   0.07847   1.000
    C12     C    0.84271   0.03738   0.63158   1.000
    C13     C    0.94011   0.82658   0.41520   1.000
    C14     C    0.11691   0.89513   0.95152   1.000
    C15     C    0.69385   0.94516   0.08091   1.000
    C16     C    0.69119   0.94955   0.95343   1.000
    C17     C    0.87801   0.03796   0.38648   1.000
    C18     C    0.45206   0.67410   0.24776   1.000
    C19     C    0.44408   0.69237   0.70970   1.000
    C20     C    0.61277   0.84571   0.48876   1.000
    C21     C    0.44289   0.66384   0.37428   1.000
    C22     C    0.34838   0.46227   0.24044   1.000
    C23     C    0.51230   0.73146   0.48012   1.000
    C24     C    0.37928   0.47153   0.73790   1.000
    C25     C    0.61813   0.61703   0.92446   1.000
    C26     C    0.34273   0.46180   0.36677   1.000
    C27     C    0.43945   0.67361   0.58476   1.000
    C28     C    0.61715   0.60505   0.05137   1.000
    C29     C    0.19373   0.55466   0.91520   1.000
    C30     C    0.19120   0.55023   0.04263   1.000
    C31     C    0.37591   0.46229   0.61242   1.000
    C32     C    0.04754   0.17409   0.24719   1.000
    C33     C    0.05594   0.19231   0.70958   1.000
    C34     C    0.88619   0.34635   0.49039   1.000
    C35     C    0.05599   0.16390   0.37390   1.000
    C36     C    0.15251   0.96305   0.24202   1.000
    C37     C    0.98662   0.23279   0.47997   1.000
    C38     C    0.11974   0.97153   0.73903   1.000
    C39     C    0.88203   0.11691   0.92154   1.000
    C40     C    0.15729   0.96261   0.36844   1.000
    C41     C    0.05987   0.17340   0.58473   1.000
    C42     C    0.88308   0.10485   0.04800   1.000
    C43     C    0.30614   0.05482   0.91910   1.000
    C44     C    0.30880   0.05044   0.04659   1.000
    C45     C    0.12199   0.96203   0.61354   1.000
    C46     C    0.54792   0.32588   0.75226   1.000
    C47     C    0.55593   0.30759   0.29032   1.000
    C48     C    0.38720   0.15427   0.51126   1.000
    C49     C    0.55709   0.33614   0.62574   1.000
    C50     C    0.65161   0.53771   0.75958   1.000
    C51     C    0.48768   0.26852   0.51900   1.000
    C52     C    0.62068   0.52845   0.26203   1.000
    C53     C    0.38186   0.38295   0.07556   1.000
    C54     C    0.65725   0.53818   0.63325   1.000
    C55     C    0.56056   0.32636   0.41525   1.000
    C56     C    0.38284   0.39493   0.94865   1.000
    C57     C    0.80625   0.44532   0.08482   1.000
    C58     C    0.80879   0.44975   0.95739   1.000
    C59     C    0.62404   0.53769   0.38759   1.000
    C60     C    0.12647   0.83118   0.49883   1.000
    C61     C    0.98176   0.91232   0.94475   1.000
    C62     C    0.29364   0.67804   0.48356   1.000
    C63     C    0.92791   0.87373   0.72787   1.000
    C64     C    0.98263   0.91971   0.87024   1.000
    C65     C    0.92921   0.85948   0.30983   1.000
    C66     C    0.91083   0.91696   0.26692   1.000
    C67     C    0.13455   0.70837   0.50340   1.000
    C68     C    0.90012   0.93101   0.76458   1.000
    C69     C    0.98341   0.90132   0.08657   1.000
    C70     C    0.92373   0.87902   0.65782   1.000
    C71     C    0.82236   0.93420   0.87089   1.000
    C72     C    0.86878   0.99114   0.73080   1.000
    C73     C    0.08166   0.76823   0.50910   1.000
    C74     C    0.82826   0.92487   0.08731   1.000
    C75     C    0.90417   0.91930   0.98015   1.000
    C76     C    0.98606   0.89659   0.16131   1.000
    C77     C    0.89292   0.98257   0.29368   1.000
    C78     C    0.05862   0.89358   0.05060   1.000
    C79     C    0.82820   0.92321   0.16201   1.000
    C80     C    0.86650   0.99180   0.66078   1.000
    C81     C    0.21904   0.72593   0.48952   1.000
    C82     C    0.90526   0.91500   0.05190   1.000
    C83     C    0.92770   0.86980   0.37900   1.000
    C84     C    0.82573   0.93155   0.94552   1.000
    C85     C    0.05796   0.89982   0.97996   1.000
    C86     C    0.75206   0.93756   0.05210   1.000
    C87     C    0.75069   0.94036   0.98148   1.000
    C88     C    0.89228   0.98795   0.36328   1.000
    C89     C    0.09216   0.90344   0.50305   1.000
    C90     C    0.62640   0.66832   0.50116   1.000
    C91     C    0.48194   0.58767   0.05602   1.000
    C92     C    0.79401   0.82234   0.51408   1.000
    C93     C    0.42768   0.62605   0.27220   1.000
    C94     C    0.48285   0.58029   0.13059   1.000
    C95     C    0.42886   0.64059   0.69003   1.000
    C96     C    0.41040   0.58305   0.73262   1.000
    C97     C    0.63397   0.79116   0.49529   1.000
    C98     C    0.40034   0.56861   0.23492   1.000
    C99     C    0.48350   0.59868   0.91415   1.000
    C100    C    0.42316   0.62070   0.34218   1.000
    C101    C    0.32251   0.56565   0.12732   1.000
    C102    C    0.36924   0.50821   0.26802   1.000
    C103    C    0.58100   0.73088   0.49057   1.000
    C104    C    0.32824   0.57503   0.91097   1.000
    C105    C    0.40428   0.58064   0.01935   1.000
    C106    C    0.48606   0.60335   0.83941   1.000
    C107    C    0.39199   0.51747   0.70554   1.000
    C108    C    0.55877   0.60648   0.95136   1.000
    C109    C    0.32805   0.57673   0.83626   1.000
    C110    C    0.36656   0.50753   0.33807   1.000
    C111    C    0.71905   0.77426   0.50872   1.000
    C112    C    0.40534   0.58491   0.94760   1.000
    C113    C    0.42687   0.63036   0.62073   1.000
    C114    C    0.32583   0.56830   0.05273   1.000
    C115    C    0.55813   0.60028   0.02201   1.000
    C116    C    0.25202   0.56226   0.94486   1.000
    C117    C    0.25071   0.55946   0.01554   1.000
    C118    C    0.39083   0.51220   0.63591   1.000
    C119    C    0.59283   0.59555   0.49787   1.000
    C120    C    0.87351   0.16881   0.50120   1.000
    C121    C    0.01823   0.08768   0.05527   1.000
    C122    C    0.70634   0.32195   0.51646   1.000
    C123    C    0.07207   0.12625   0.27215   1.000
    C124    C    0.01735   0.08027   0.12978   1.000
    C125    C    0.07078   0.14050   0.69019   1.000
    C126    C    0.08916   0.08303   0.73310   1.000
    C127    C    0.86544   0.29161   0.49659   1.000
    C128    C    0.09986   0.06897   0.23544   1.000
    C129    C    0.01657   0.09865   0.91345   1.000
    C130    C    0.07624   0.12096   0.34220   1.000
    C131    C    0.17762   0.06578   0.12913   1.000
    C132    C    0.13121   0.00884   0.26910   1.000
    C133    C    0.91833   0.23175   0.49087   1.000
    C134    C    0.17173   0.07510   0.91271   1.000
    C135    C    0.09582   0.08067   0.01987   1.000
    C136    C    0.01393   0.10340   0.83871   1.000
    C137    C    0.10708   0.01742   0.70634   1.000
    C138    C    0.94137   0.10641   0.94940   1.000
    C139    C    0.17180   0.07678   0.83801   1.000
    C140    C    0.13349   0.00819   0.33924   1.000
    C141    C    0.78095   0.27405   0.51050   1.000
    C142    C    0.09473   0.08499   0.94812   1.000
    C143    C    0.07228   0.13018   0.62092   1.000
    C144    C    0.17426   0.06845   0.05450   1.000
    C145    C    0.94203   0.10016   0.02000   1.000
    C146    C    0.24793   0.06242   0.94780   1.000
    C147    C    0.24929   0.05961   0.01854   1.000
    C148    C    0.10772   0.01203   0.63674   1.000
    C149    C    0.90783   0.09654   0.49697   1.000
    C150    C    0.37358   0.33166   0.49886   1.000
    C151    C    0.51804   0.41230   0.94400   1.000
    C152    C    0.20597   0.17764   0.48594   1.000
    C153    C    0.57230   0.37393   0.72780   1.000
    C154    C    0.51714   0.41969   0.86943   1.000
    C155    C    0.57114   0.35938   0.30999   1.000
    C156    C    0.58958   0.41693   0.26740   1.000
    C157    C    0.36601   0.20882   0.50470   1.000
    C158    C    0.59964   0.43137   0.76500   1.000
    C159    C    0.51648   0.40130   0.08587   1.000
    C160    C    0.57682   0.37928   0.65783   1.000
    C161    C    0.67748   0.43433   0.87200   1.000
    C162    C    0.63075   0.49177   0.73200   1.000
    C163    C    0.41898   0.26910   0.50945   1.000
    C164    C    0.67175   0.42495   0.08905   1.000
    C165    C    0.59570   0.41936   0.98067   1.000
    C166    C    0.51394   0.39662   0.16061   1.000
    C167    C    0.60798   0.48251   0.29448   1.000
    C168    C    0.44122   0.39349   0.04866   1.000
    C169    C    0.67194   0.42325   0.16375   1.000
    C170    C    0.63342   0.49245   0.66195   1.000
    C171    C    0.28094   0.22573   0.49129   1.000
    C172    C    0.59465   0.41505   0.05240   1.000
    C173    C    0.57312   0.36961   0.37929   1.000
    C174    C    0.67416   0.43167   0.94729   1.000
    C175    C    0.44185   0.39970   0.97801   1.000
    C176    C    0.74797   0.43771   0.05516   1.000
    C177    C    0.74928   0.44052   0.98447   1.000
    C178    C    0.60913   0.48777   0.36410   1.000
    C179    C    0.40715   0.40443   0.50215   1.000
    C180    C    0.23355   0.81637   0.48237   1.000
    C181    C    0.73406   0.68399   0.51660   1.000
    C182    C    0.76643   0.18362   0.51765   1.000
    C183    C    0.26592   0.31600   0.48341   1.000
    C184    C    0.90904   0.93280   0.40554   1.000
    C185    C    0.90220   0.92762   0.83753   1.000
    C186    C    0.89364   0.93707   0.62477   1.000
    C187    C    0.90852   0.91046   0.19446   1.000
    C188    C    0.40758   0.56744   0.59397   1.000
    C189    C    0.40243   0.57213   0.16198   1.000
    C190    C    0.39309   0.56248   0.37464   1.000
    C191    C    0.40838   0.58947   0.80506   1.000
    C192    C    0.09095   0.06718   0.59448   1.000
    C193    C    0.09779   0.07236   0.16249   1.000
    C194    C    0.10634   0.06291   0.37525   1.000
    C195    C    0.09146   0.08951   0.80556   1.000
    C196    C    0.59240   0.43254   0.40605   1.000
    C197    C    0.59756   0.42785   0.83800   1.000
    C198    C    0.60689   0.43750   0.62538   1.000
    C199    C    0.59161   0.41051   0.19490   1.000
    C200    C    0.01815   0.91061   0.52767   1.000
    C201    C    0.14131   0.95470   0.48410   1.000
    C202    C    0.36727   0.70400   0.47492   1.000
    C203    C    0.04952   0.91957   0.83817   1.000
    C204    C    0.05205   0.88274   0.19305   1.000
    C205    C    0.27729   0.61112   0.48894   1.000
    C206    C    0.75541   0.94138   0.83890   1.000
    C207    C    0.76324   0.93218   0.19459   1.000
    C208    C    0.51775   0.58660   0.47478   1.000
    C209    C    0.64426   0.54531   0.51608   1.000
    C210    C    0.86770   0.79628   0.52275   1.000
    C211    C    0.54972   0.58060   0.16370   1.000
    C212    C    0.55202   0.61717   0.80863   1.000
    C213    C    0.77806   0.88925   0.50843   1.000
    C214    C    0.25554   0.55856   0.15823   1.000
    C215    C    0.26300   0.56779   0.80260   1.000
    C216    C    0.98184   0.08938   0.47235   1.000
    C217    C    0.85868   0.04528   0.51586   1.000
    C218    C    0.63271   0.29599   0.52500   1.000
    C219    C    0.95047   0.08041   0.16185   1.000
    C220    C    0.94794   0.11725   0.80697   1.000
    C221    C    0.72271   0.38887   0.51107   1.000
    C222    C    0.24458   0.05861   0.16110   1.000
    C223    C    0.23675   0.06781   0.80543   1.000
    C224    C    0.48223   0.41339   0.52524   1.000
    C225    C    0.35572   0.45467   0.48393   1.000
    C226    C    0.13228   0.20370   0.47727   1.000
    C227    C    0.45026   0.41938   0.83623   1.000
    C228    C    0.44797   0.38281   0.19139   1.000
    C229    C    0.22192   0.11074   0.49158   1.000
    C230    C    0.74445   0.44143   0.84179   1.000
    C231    C    0.73699   0.43220   0.19737   1.000
    O232    O    0.22095   0.55484   0.02908   1.000
    O233    O    0.28827   0.56388   0.03413   1.000
    O234    O    0.25137   0.56086   0.98020   1.000
    O235    O    0.27904   0.05503   0.03256   1.000
    O236    O    0.21178   0.06403   0.03652   1.000
    O237    O    0.24861   0.06102   0.98317   1.000
    O238    O    0.36506   0.57447   0.03604   1.000
    O239    O    0.44311   0.58416   0.03768   1.000
    O240    O    0.40481   0.58277   0.98347   1.000
    O241    O    0.13504   0.07456   0.03719   1.000
    O242    O    0.05702   0.08417   0.03757   1.000
    O243    O    0.09527   0.08283   0.98399   1.000
    O244    O    0.91255   0.10251   0.03400   1.000
    O245    O    0.98013   0.09392   0.03763   1.000
    O246    O    0.94170   0.10328   0.98470   1.000
    O247    O    0.58764   0.60267   0.03669   1.000
    O248    O    0.52004   0.59398   0.03902   1.000
    O249    O    0.55845   0.60338   0.98668   1.000
    O250    O    0.41154   0.38822   0.06211   1.000
    O251    O    0.47885   0.39739   0.06727   1.000
    O252    O    0.44154   0.39660   0.01334   1.000
    O253    O    0.08829   0.88832   0.06453   1.000
    O254    O    0.02102   0.89745   0.06858   1.000
    O255    O    0.05829   0.89670   0.01528   1.000
    O256    O    0.94434   0.90816   0.06923   1.000
    O257    O    0.86676   0.91994   0.06961   1.000
    O258    O    0.90472   0.91715   0.01603   1.000
    O259    O    0.72295   0.94136   0.06650   1.000
    O260    O    0.79016   0.93122   0.06971   1.000
    O261    O    0.75138   0.93896   0.01679   1.000
    O262    O    0.55557   0.40817   0.06914   1.000
    O263    O    0.63320   0.42000   0.07072   1.000
    O264    O    0.59517   0.41720   0.01654   1.000
    O265    O    0.32417   0.56698   0.09002   1.000
    O266    O    0.17594   0.06711   0.09181   1.000
    O267    O    0.77711   0.44151   0.06999   1.000
    O268    O    0.70986   0.43133   0.07210   1.000
    O269    O    0.74862   0.43912   0.01981   1.000
    O270    O    0.01779   0.08397   0.09253   1.000
    O271    O    0.48239   0.58398   0.09330   1.000
    O272    O    0.51521   0.39896   0.12324   1.000
    O273    O    0.98474   0.89895   0.12394   1.000
    O274    O    0.82823   0.92404   0.12466   1.000
    O275    O    0.67184   0.42410   0.12640   1.000
    O276    O    0.28902   0.56210   0.14277   1.000
    O277    O    0.36247   0.56889   0.14465   1.000
    O278    O    0.21110   0.06220   0.14511   1.000
    O279    O    0.13770   0.06907   0.14581   1.000
    O280    O    0.98391   0.08034   0.14582   1.000
    O281    O    0.05757   0.07632   0.14613   1.000
    O282    O    0.44264   0.57621   0.14628   1.000
    O283    O    0.51628   0.58045   0.14714   1.000
    O284    O    0.48095   0.38972   0.17600   1.000
    O285    O    0.55277   0.40356   0.17775   1.000
    O286    O    0.01906   0.88966   0.17718   1.000
    O287    O    0.94729   0.90353   0.17788   1.000
    O288    O    0.40138   0.57037   0.19845   1.000
    O289    O    0.86836   0.91683   0.17823   1.000
    O290    O    0.79572   0.92769   0.17830   1.000
    O291    O    0.09882   0.07067   0.19897   1.000
    O292    O    0.63177   0.41688   0.17932   1.000
    O293    O    0.70446   0.42772   0.18056   1.000
    O294    O    0.90968   0.91371   0.23069   1.000
    O295    O    0.59060   0.41372   0.23115   1.000
    O296    O    0.38479   0.53841   0.25147   1.000
    O297    O    0.41401   0.59733   0.25356   1.000
    O298    O    0.11554   0.03891   0.25227   1.000
    O299    O    0.08596   0.09761   0.25379   1.000
    O300    O    0.35881   0.48524   0.25423   1.000
    O301    O    0.14186   0.98595   0.25556   1.000
    O302    O    0.05980   0.15017   0.25967   1.000
    O303    O    0.43987   0.65007   0.25998   1.000
    O304    O    0.88659   0.00551   0.27733   1.000
    O305    O    0.61433   0.50548   0.27825   1.000
    O306    O    0.90188   0.94976   0.28030   1.000
    O307    O    0.92002   0.88822   0.28837   1.000
    O308    O    0.59878   0.44972   0.28094   1.000
    O309    O    0.58036   0.38815   0.28870   1.000
    O310    O    0.36790   0.50787   0.30304   1.000
    O311    O    0.13235   0.00851   0.30417   1.000
    O312    O    0.07416   0.12360   0.30717   1.000
    O313    O    0.42542   0.62338   0.30719   1.000
    O314    O    0.56354   0.33349   0.30016   1.000
    O315    O    0.93662   0.83357   0.30011   1.000
    O316    O    0.89260   0.98526   0.32848   1.000
    O317    O    0.60856   0.48514   0.32929   1.000
    O318    O    0.92845   0.86464   0.34441   1.000
    O319    O    0.57213   0.36449   0.34464   1.000
    O320    O    0.35464   0.48467   0.35242   1.000
    O321    O    0.37982   0.53501   0.35635   1.000
    O322    O    0.14538   0.98540   0.35384   1.000
    O323    O    0.11991   0.03555   0.35724   1.000
    O324    O    0.43302   0.64227   0.35823   1.000
    O325    O    0.40812   0.59159   0.35841   1.000
    O326    O    0.06612   0.14243   0.35805   1.000
    O327    O    0.09129   0.09193   0.35873   1.000
    O328    O    0.88514   0.01295   0.37488   1.000
    O329    O    0.90066   0.96037   0.38441   1.000
    O330    O    0.61658   0.51273   0.37584   1.000
    O331    O    0.60076   0.46016   0.38507   1.000
    O332    O    0.39138   0.56048   0.43000   1.000
    O333    O    0.10716   0.06081   0.43059   1.000
    O334    O    0.91837   0.90130   0.39227   1.000
    O335    O    0.93391   0.84819   0.39710   1.000
    O336    O    0.58276   0.40107   0.39267   1.000
    O337    O    0.56684   0.34798   0.39727   1.000
    O338    O    0.90052   0.93703   0.45982   1.000
    O339    O    0.60135   0.43702   0.46035   1.000
    O340    O    0.04491   0.07405   0.47914   1.000
    O341    O    0.94483   0.09296   0.48466   1.000
    O342    O    0.45371   0.57254   0.48007   1.000
    O343    O    0.55529   0.59107   0.48633   1.000
    O344    O    0.33046   0.69102   0.47924   1.000
    O345    O    0.16913   0.19067   0.48160   1.000
    O346    O    0.95247   0.23227   0.48542   1.000
    O347    O    0.54665   0.73117   0.48535   1.000
    O348    O    0.22629   0.77115   0.48595   1.000
    O349    O    0.18001   0.82377   0.49060   1.000
    O350    O    0.27343   0.27086   0.48735   1.000
    O351    O    0.31975   0.32383   0.49114   1.000
    O352    O    0.28547   0.64458   0.48625   1.000
    O353    O    0.25634   0.70199   0.48654   1.000
    O354    O    0.37270   0.50657   0.48465   1.000
    O355    O    0.38144   0.42955   0.49304   1.000
    O356    O    0.12465   0.00671   0.48501   1.000
    O357    O    0.11673   0.92907   0.49357   1.000
    O358    O    0.33348   0.58480   0.48716   1.000
    O359    O    0.39863   0.56296   0.53967   1.000
    O360    O    0.16495   0.08473   0.48876   1.000
    O361    O    0.09947   0.06295   0.54020   1.000
    O362    O    0.24346   0.20169   0.48861   1.000
    O363    O    0.21395   0.14419   0.48876   1.000
    O364    O    0.62337   0.81843   0.49202   1.000
    O365    O    0.17679   0.71715   0.49646   1.000
    O366    O    0.87581   0.31898   0.49349   1.000
    O367    O    0.60749   0.76102   0.49293   1.000
    O368    O    0.60370   0.69960   0.49587   1.000
    O369    O    0.89188   0.26168   0.49373   1.000
    O370    O    0.89592   0.20028   0.49604   1.000
    O371    O    0.32347   0.21728   0.49800   1.000
    O372    O    0.67651   0.78271   0.50200   1.000
    O373    O    0.82319   0.28283   0.50355   1.000
    O374    O    0.89067   0.13267   0.49909   1.000
    O375    O    0.88326   0.07091   0.50641   1.000
    O376    O    0.60962   0.63194   0.49952   1.000
    O377    O    0.61855   0.57043   0.50697   1.000
    O378    O    0.10931   0.86731   0.50094   1.000
    O379    O    0.10407   0.79970   0.50397   1.000
    O380    O    0.39037   0.36805   0.50050   1.000
    O381    O    0.39628   0.30038   0.50416   1.000
    O382    O    0.68023   0.67616   0.50888   1.000
    O383    O    0.81997   0.17621   0.50943   1.000
    O384    O    0.44469   0.40891   0.51369   1.000
    O385    O    0.05515   0.90703   0.51536   1.000
    O386    O    0.10810   0.73830   0.50625   1.000
    O387    O    0.12417   0.68100   0.50652   1.000
    O388    O    0.39249   0.23896   0.50707   1.000
    O389    O    0.37661   0.18155   0.50798   1.000
    O390    O    0.78604   0.85580   0.51126   1.000
    O391    O    0.83503   0.91526   0.51126   1.000
    O392    O    0.75653   0.79830   0.51140   1.000
    O393    O    0.72655   0.72912   0.51266   1.000
    O394    O    0.04752   0.76771   0.51458   1.000
    O395    O    0.45333   0.26881   0.51423   1.000
    O396    O    0.74364   0.29800   0.51348   1.000
    O397    O    0.77369   0.22884   0.51408   1.000
    O398    O    0.66651   0.41519   0.51286   1.000
    O399    O    0.71452   0.35541   0.51376   1.000
    O400    O    0.83086   0.80931   0.51842   1.000
    O401    O    0.87534   0.99327   0.51497   1.000
    O402    O    0.95508   0.92594   0.52088   1.000
    O403    O    0.89282   0.93917   0.56943   1.000
    O404    O    0.62729   0.49341   0.51537   1.000
    O405    O    0.54627   0.42745   0.51994   1.000
    O406    O    0.60860   0.43951   0.57002   1.000
    O407    O    0.66953   0.30897   0.52073   1.000
    O408    O    0.06608   0.15179   0.60283   1.000
    O409    O    0.43316   0.65199   0.60274   1.000
    O410    O    0.41722   0.59890   0.60735   1.000
    O411    O    0.39921   0.53982   0.61494   1.000
    O412    O    0.08161   0.09868   0.60770   1.000
    O413    O    0.09933   0.03961   0.61561   1.000
    O414    O    0.38337   0.48725   0.62416   1.000
    O415    O    0.11485   0.98703   0.62514   1.000
    O416    O    0.42786   0.63548   0.65538   1.000
    O417    O    0.07153   0.13534   0.65555   1.000
    O418    O    0.90868   0.90805   0.64129   1.000
    O419    O    0.88007   0.96444   0.64277   1.000
    O420    O    0.59186   0.40839   0.64160   1.000
    O421    O    0.62016   0.46497   0.64366   1.000
    O422    O    0.56696   0.35771   0.64178   1.000
    O423    O    0.93386   0.85755   0.64197   1.000
    O424    O    0.85460   0.01459   0.64618   1.000
    O425    O    0.64534   0.51531   0.64760   1.000
    O426    O    0.39141   0.51484   0.67072   1.000
    O427    O    0.10740   0.01472   0.67154   1.000
    O428    O    0.92582   0.87638   0.69284   1.000
    O429    O    0.57456   0.37660   0.69281   1.000
    O430    O    0.86764   0.99147   0.69579   1.000
    O431    O    0.63208   0.49211   0.69698   1.000
    O432    O    0.43647   0.66648   0.69986   1.000
    O433    O    0.41963   0.61182   0.71132   1.000
    O434    O    0.06336   0.16641   0.69988   1.000
    O435    O    0.07997   0.11176   0.71164   1.000
    O436    O    0.40120   0.55026   0.71908   1.000
    O437    O    0.38563   0.49450   0.72172   1.000
    O438    O    0.09812   0.05022   0.71972   1.000
    O439    O    0.11341   0.99447   0.72268   1.000
    O440    O    0.56011   0.34991   0.74003   1.000
    O441    O    0.58597   0.40265   0.74640   1.000
    O442    O    0.94017   0.84981   0.74035   1.000
    O443    O    0.91401   0.90237   0.74622   1.000
    O444    O    0.85813   0.01404   0.74440   1.000
    O445    O    0.88445   0.96108   0.74769   1.000
    O446    O    0.64118   0.51474   0.74579   1.000
    O447    O    0.61519   0.46157   0.74850   1.000
    O448    O    0.40939   0.58626   0.76884   1.000
    O449    O    0.09031   0.08627   0.76933   1.000
    O450    O    0.90116   0.92932   0.80105   1.000
    O451    O    0.59860   0.42961   0.80150   1.000
    O452    O    0.29553   0.57226   0.81943   1.000
    O453    O    0.36822   0.58310   0.82066   1.000
    O454    O    0.44722   0.59641   0.82223   1.000
    O455    O    0.20428   0.07230   0.82172   1.000
    O456    O    0.13163   0.08315   0.82179   1.000
    O457    O    0.05270   0.09646   0.82213   1.000
    O458    O    0.98093   0.11032   0.82284   1.000
    O459    O    0.51904   0.61026   0.82402   1.000
    O460    O    0.48370   0.41954   0.85283   1.000
    O461    O    0.32814   0.57588   0.87362   1.000
    O462    O    0.94242   0.92367   0.85389   1.000
    O463    O    0.86228   0.93091   0.85421   1.000
    O464    O    0.55735   0.42377   0.85372   1.000
    O465    O    0.63752   0.43109   0.85500   1.000
    O466    O    0.17176   0.07594   0.87536   1.000
    O467    O    0.01608   0.91964   0.85421   1.000
    O468    O    0.01525   0.10103   0.87608   1.000
    O469    O    0.78889   0.93779   0.85490   1.000
    O470    O    0.48478   0.60102   0.87678   1.000
    O471    O    0.71096   0.43788   0.85690   1.000
    O472    O    0.51759   0.41599   0.90671   1.000
    O473    O    0.98220   0.91601   0.90750   1.000
    O474    O    0.82405   0.93287   0.90820   1.000
    O475    O    0.67582   0.43300   0.90964   1.000
    O476    O    0.29013   0.56865   0.92791   1.000
    O477    O    0.36679   0.57997   0.92929   1.000
    O478    O    0.20983   0.06876   0.93026   1.000
    O479    O    0.13323   0.08004   0.93041   1.000
    O480    O    0.05565   0.09182   0.93078   1.000
    O481    O    0.97897   0.10253   0.93143   1.000
    O482    O    0.44442   0.59179   0.93088   1.000
    O483    O    0.52114   0.60258   0.93275   1.000
    O484    O    0.22288   0.55846   0.93003   1.000
    O485    O    0.27703   0.05862   0.93345   1.000
    O486    O    0.91170   0.11166   0.93547   1.000
    O487    O    0.58845   0.61175   0.93791   1.000
    O488    O    0.47995   0.40600   0.96100   1.000
    O489    O    0.55687   0.41583   0.96233   1.000
    O490    O    0.01986   0.90607   0.96235   1.000
    O491    O    0.94297   0.91581   0.96245   1.000
    O492    O    0.86495   0.92542   0.96283   1.000
    O493    O    0.78821   0.93595   0.96350   1.000
    O494    O    0.63493   0.42551   0.96398   1.000
    O495    O    0.71172   0.43610   0.96588   1.000
    O496    O    0.41235   0.39731   0.96333   1.000
    O497    O    0.08743   0.89747   0.96574   1.000
    O498    O    0.72094   0.94496   0.96745   1.000
    O499    O    0.77904   0.44514   0.97093   1.000
loop_
    _geom_bond_atom_site_label_1
    _geom_bond_atom_site_label_2
    _geom_bond_distance
    _geom_bond_site_symmetry_2
    _ccdc_geom_bond_type
    C117   O232      0.54477      .   S
    C30    O232      0.54477      .   S
    C117   O233      0.69533      .   S
    C114   O233      0.69533      .   S
    C117   O234      0.70160  1_554   S
    C116   O234      0.70160      .   S
    C147   O235      0.54474      .   S
    C44    O235      0.54474      .   S
    C147   O236      0.69528      .   S
    C144   O236      0.69528      .   S
    C147   O237      0.70198  1_554   S
    C146   O237      0.70198      .   S
    C105   O238      0.70711      .   S
    C114   O238      0.70711      .   S
    C105   O239      0.70737      .   S
    C91    O239      0.70737      .   S
    C105   O240      0.71245  1_554   S
    C112   O240      0.71245      .   S
    C135   O241      0.70699      .   S
    C144   O241      0.70699      .   S
    C135   O242      0.70729      .   S
    C121   O242      0.70729      .   S
    C135   O243      0.71229  1_554   S
    C142   O243      0.71229      .   S
    C145   O244      0.54241      .   S
    C42    O244      0.54241      .   S
    C145   O245      0.69549      .   S
    C121   O245      0.69549  1_455   S
    C145   O246      0.70173  1_554   S
    C138   O246      0.70173      .   S
    C115   O247      0.54471      .   S
    C28    O247      0.54471      .   S
    C115   O248      0.69523      .   S
    C91    O248      0.69523      .   S
    C115   O249      0.70230  1_554   S
    C108   O249      0.70230      .   S
    C168   O250      0.54476      .   S
    C53    O250      0.54476      .   S
    C168   O251      0.69514      .   S
    C159   O251      0.69514      .   S
    C168   O252      0.70230      .   S
    C175   O252      0.70230  1_556   S
    C78    O253      0.54472      .   S
    C11    O253      0.54472      .   S
    C78    O254      0.69517      .   S
    C69    O254      0.69517  1_655   S
    C78    O255      0.70211      .   S
    C85    O255      0.70211  1_556   S
    C82    O256      0.70748      .   S
    C69    O256      0.70748      .   S
    C82    O257      0.70690      .   S
    C74    O257      0.70690      .   S
    C82    O258      0.71229      .   S
    C75    O258      0.71229  1_556   S
    C86    O259      0.54520      .   S
    C15    O259      0.54520      .   S
    C86    O260      0.69548      .   S
    C74    O260      0.69548      .   S
    C86    O261      0.70079      .   S
    C87    O261      0.70079  1_556   S
    C172   O262      0.70772      .   S
    C159   O262      0.70772      .   S
    C172   O263      0.70696      .   S
    C164   O263      0.70696      .   S
    C172   O264      0.71226      .   S
    C165   O264      0.71226  1_556   S
    C114   O265      0.74092      .   S
    C101   O265      0.74092      .   S
    C144   O266      0.74077      .   S
    C131   O266      0.74077      .   S
    C176   O267      0.54474      .   S
    C57    O267      0.54474      .   S
    C176   O268      0.69505      .   S
    C164   O268      0.69505      .   S
    C176   O269      0.70170      .   S
    C177   O269      0.70170  1_556   S
    C121   O270      0.74121      .   S
    C124   O270      0.74121      .   S
    C91    O271      0.74165      .   S
    C94    O271      0.74165      .   S
    C159   O272      0.74255      .   S
    C166   O272      0.74255      .   S
    C69    O273      0.74216      .   S
    C76    O273      0.74216      .   S
    C74    O274      0.74127      .   S
    C79    O274      0.74127      .   S
    C164   O275      0.74125      .   S
    C169   O275      0.74125      .   S
    C101   O276      0.61145      .   S
    C214   O276      0.61145      .   S
    C101   O277      0.71216      .   S
    C189   O277      0.71216      .   S
    C131   O278      0.61133      .   S
    C222   O278      0.61133      .   S
    C131   O279      0.71218      .   S
    C193   O279      0.71218      .   S
    C124   O280      0.61420  1_455   S
    C219   O280      0.61420      .   S
    C124   O281      0.70670      .   S
    C193   O281      0.70670      .   S
    C94    O282      0.70668      .   S
    C189   O282      0.70668      .   S
    C94    O283      0.61370      .   S
    C211   O283      0.61370      .   S
    C166   O284      0.61339      .   S
    C228   O284      0.61339      .   S
    C166   O285      0.70559      .   S
    C199   O285      0.70559      .   S
    C76    O286      0.61334  1_655   S
    C204   O286      0.61334      .   S
    C76    O287      0.70596      .   S
    C187   O287      0.70596      .   S
    C189   O288      0.72429      .   S
    C98    O288      0.72429      .   S
    C79    O289      0.71070      .   S
    C187   O289      0.71070      .   S
    C79    O290      0.61137      .   S
    C207   O290      0.61137      .   S
    C193   O291      0.72402      .   S
    C128   O291      0.72402      .   S
    C169   O292      0.71042      .   S
    C199   O292      0.71042      .   S
    C169   O293      0.61134      .   S
    C231   O293      0.61134      .   S
    C187   O294      0.72351      .   S
    C66    O294      0.72351      .   S
    C199   O295      0.72415      .   S
    C156   O295      0.72415      .   S
    C98    O296      0.69567      .   S
    C102   O296      0.69567      .   S
    C98    O297      0.69672      .   S
    C93    O297      0.69672      .   S
    C128   O298      0.69536      .   S
    C132   O298      0.69536      .   S
    C128   O299      0.69677      .   S
    C123   O299      0.69677      .   S
    C22    O300      0.54300      .   S
    C102   O300      0.54300      .   S
    C36    O301      0.54273      .   S
    C132   O301      0.54273  1_545   S
    C32    O302      0.54418      .   S
    C123   O302      0.54418      .   S
    C18    O303      0.54415      .   S
    C93    O303      0.54415      .   S
    C10    O304      0.54349      .   S
    C77    O304      0.54349  1_565   S
    C52    O305      0.54341      .   S
    C167   O305      0.54341      .   S
    C66    O306      0.69606      .   S
    C77    O306      0.69606      .   S
    C66    O307      0.69583      .   S
    C65    O307      0.69583      .   S
    C156   O308      0.69606      .   S
    C167   O308      0.69606      .   S
    C156   O309      0.69585      .   S
    C155   O309      0.69585      .   S
    C102   O310      0.69575      .   S
    C110   O310      0.69575      .   S
    C132   O311      0.69615      .   S
    C140   O311      0.69615      .   S
    C123   O312      0.69626      .   S
    C130   O312      0.69626      .   S
    C93    O313      0.69644      .   S
    C100   O313      0.69644      .   S
    C47    O314      0.54404      .   S
    C155   O314      0.54404      .   S
    C5     O315      0.54416      .   S
    C65    O315      0.54416      .   S
    C77    O316      0.69415      .   S
    C88    O316      0.69415      .   S
    C167   O317      0.69413      .   S
    C178   O317      0.69413      .   S
    C65    O318      0.69625      .   S
    C83    O318      0.69625      .   S
    C155   O319      0.69716      .   S
    C173   O319      0.69716      .   S
    C110   O320      0.54484      .   S
    C26    O320      0.54484      .   S
    C110   O321      0.67234      .   S
    C190   O321      0.67234      .   S
    C140   O322      0.54481  1_545   S
    C40    O322      0.54481      .   S
    C140   O323      0.67231      .   S
    C194   O323      0.67231      .   S
    C100   O324      0.54488      .   S
    C21    O324      0.54488      .   S
    C100   O325      0.67339      .   S
    C190   O325      0.67339      .   S
    C130   O326      0.54480      .   S
    C35    O326      0.54480      .   S
    C130   O327      0.67336      .   S
    C194   O327      0.67336      .   S
    C88    O328      0.54345  1_565   S
    C17    O328      0.54345      .   S
    C88    O329      0.67278      .   S
    C184   O329      0.67278      .   S
    C178   O330      0.54352      .   S
    C59    O330      0.54352      .   S
    C178   O331      0.67267      .   S
    C196   O331      0.67267      .   S
    C190   O332      1.09943      .   S
    C1     O332      1.09943      .   S
    C194   O333      1.09828      .   S
    C2     O333      1.09828      .   S
    C83    O334      0.67425      .   S
    C184   O334      0.67425      .   S
    C83    O335      0.54512      .   S
    C13    O335      0.54512      .   S
    C173   O336      0.67374      .   S
    C196   O336      0.67374      .   S
    C173   O337      0.54505      .   S
    C55    O337      0.54505      .   S
    C184   O338      1.09213      .   S
    C0     O338      1.09213      .   S
    C196   O339      1.09102      .   S
    C3     O339      1.09102      .   S
    C216   O340      1.03314  1_655   S
    C2     O340      1.03314      .   S
    C216   O341      0.63387      .   S
    C149   O341      0.63387      .   S
    C208   O342      1.03904      .   S
    C1     O342      1.03904      .   S
    C208   O343      0.63303      .   S
    C119   O343      0.63303      .   S
    C202   O344      0.62991      .   S
    C62    O344      0.62991      .   S
    C226   O345      0.63025      .   S
    C152   O345      0.63025      .   S
    C37    O346      0.54483      .   S
    C133   O346      0.54483      .   S
    C23    O347      0.54486      .   S
    C103   O347      0.54486      .   S
    C180   O348      0.86311      .   S
    C81    O348      0.86311      .   S
    C180   O349      0.86539      .   S
    C60    O349      0.86539      .   S
    C183   O350      0.86290      .   S
    C171   O350      0.86290      .   S
    C183   O351      0.86531      .   S
    C150   O351      0.86531      .   S
    C62    O352      0.64592      .   S
    C205   O352      0.64592      .   S
    C62    O353      0.74212      .   S
    C81    O353      0.74212      .   S
    C225   O354      1.01606      .   S
    C1     O354      1.01606      .   S
    C225   O355      0.64353      .   S
    C179   O355      0.64353      .   S
    C201   O356      1.01832  1_565   S
    C2     O356      1.01832      .   S
    C201   O357      0.64263      .   S
    C89    O357      0.64263      .   S
    C1     O358      1.01069      .   S
    C205   O358      1.01069      .   S
    C1     O359      1.09100      .   S
    C188   O359      1.09100      .   S
    C2     O360      1.01650      .   S
    C229   O360      1.01650      .   S
    C2     O361      1.09213      .   S
    C192   O361      1.09213      .   S
    C152   O362      0.74212      .   S
    C171   O362      0.74212      .   S
    C152   O363      0.64574      .   S
    C229   O363      0.64574      .   S
    C20    O364      0.54394      .   S
    C97    O364      0.54394      .   S
    C81    O365      0.69375      .   S
    C67    O365      0.69375      .   S
    C34    O366      0.54389      .   S
    C127   O366      0.54389      .   S
    C103   O367      0.70525      .   S
    C97    O367      0.70525      .   S
    C103   O368      0.69513      .   S
    C90    O368      0.69513      .   S
    C133   O369      0.70497      .   S
    C127   O369      0.70497      .   S
    C133   O370      0.69515      .   S
    C120   O370      0.69515      .   S
    C171   O371      0.69378      .   S
    C157   O371      0.69378      .   S
    C97    O372      0.69381      .   S
    C111   O372      0.69381      .   S
    C127   O373      0.69381      .   S
    C141   O373      0.69381      .   S
    C149   O374      0.73669      .   S
    C120   O374      0.73669      .   S
    C149   O375      0.64247      .   S
    C217   O375      0.64247      .   S
    C119   O376      0.73679      .   S
    C90    O376      0.73679      .   S
    C119   O377      0.64353      .   S
    C209   O377      0.64353      .   S
    C60    O378      0.73668      .   S
    C89    O378      0.73668      .   S
    C60    O379      0.69507      .   S
    C73    O379      0.69507      .   S
    C150   O380      0.73681      .   S
    C179   O380      0.73681      .   S
    C150   O381      0.69512      .   S
    C163   O381      0.69512      .   S
    C90    O382      0.86531      .   S
    C181   O382      0.86531      .   S
    C120   O383      0.86538      .   S
    C182   O383      0.86538      .   S
    C179   O384      0.63301      .   S
    C224   O384      0.63301      .   S
    C89    O385      0.63386      .   S
    C200   O385      0.63386      .   S
    C67    O386      0.70496      .   S
    C73    O386      0.70496      .   S
    C67    O387      0.54393      .   S
    C6     O387      0.54393      .   S
    C157   O388      0.70528      .   S
    C163   O388      0.70528      .   S
    C157   O389      0.54396      .   S
    C48    O389      0.54396      .   S
    C213   O390      0.64575      .   S
    C92    O390      0.64575      .   S
    C213   O391      1.01651      .   S
    C0     O391      1.01651      .   S
    C111   O392      0.74212      .   S
    C92    O392      0.74212      .   S
    C111   O393      0.86289      .   S
    C181   O393      0.86289      .   S
    C73    O394      0.54495      .   S
    C9     O394      0.54495      .   S
    C163   O395      0.54334      .   S
    C51    O395      0.54334      .   S
    C141   O396      0.74212      .   S
    C122   O396      0.74212      .   S
    C141   O397      0.86311      .   S
    C182   O397      0.86311      .   S
    C221   O398      1.01074      .   S
    C3     O398      1.01074      .   S
    C221   O399      0.64592      .   S
    C122   O399      0.64592      .   S
    C92    O400      0.63025      .   S
    C210   O400      0.63025      .   S
    C0     O401      1.01827      .   S
    C217   O401      1.01827  1_545   S
    C0     O402      1.03309      .   S
    C200   O402      1.03309  1_455   S
    C0     O403      1.09828      .   S
    C186   O403      1.09828      .   S
    C3     O404      1.01602      .   S
    C209   O404      1.01602      .   S
    C3     O405      1.03907      .   S
    C224   O405      1.03907      .   S
    C3     O406      1.09943      .   S
    C198   O406      1.09943      .   S
    C122   O407      0.62979      .   S
    C218   O407      0.62979      .   S
    C41    O408      0.54506      .   S
    C143   O408      0.54506      .   S
    C27    O409      0.54512      .   S
    C113   O409      0.54512      .   S
    C188   O410      0.67373      .   S
    C113   O410      0.67373      .   S
    C188   O411      0.67261      .   S
    C118   O411      0.67261      .   S
    C192   O412      0.67384      .   S
    C143   O412      0.67384      .   S
    C192   O413      0.67277      .   S
    C148   O413      0.67277      .   S
    C31    O414      0.54352      .   S
    C118   O414      0.54352      .   S
    C45    O415      0.54345      .   S
    C148   O415      0.54345  1_545   S
    C113   O416      0.69716      .   S
    C95    O416      0.69716      .   S
    C143   O417      0.69724      .   S
    C125   O417      0.69724      .   S
    C186   O418      0.67337      .   S
    C70    O418      0.67337      .   S
    C186   O419      0.67231      .   S
    C80    O419      0.67231      .   S
    C198   O420      0.67334      .   S
    C160   O420      0.67334      .   S
    C198   O421      0.67233      .   S
    C170   O421      0.67233      .   S
    C49    O422      0.54483      .   S
    C160   O422      0.54483      .   S
    C7     O423      0.54479      .   S
    C70    O423      0.54479      .   S
    C12    O424      0.54481      .   S
    C80    O424      0.54481  1_565   S
    C54    O425      0.54483      .   S
    C170   O425      0.54483      .   S
    C118   O426      0.69423      .   S
    C107   O426      0.69423      .   S
    C148   O427      0.69415      .   S
    C137   O427      0.69415      .   S
    C70    O428      0.69626      .   S
    C63    O428      0.69626      .   S
    C160   O429      0.69634      .   S
    C153   O429      0.69634      .   S
    C80    O430      0.69496      .   S
    C72    O430      0.69496      .   S
    C170   O431      0.69575      .   S
    C162   O431      0.69575      .   S
    C95    O432      0.54403      .   S
    C19    O432      0.54403      .   S
    C95    O433      0.69585      .   S
    C96    O433      0.69585      .   S
    C125   O434      0.54401      .   S
    C33    O434      0.54401      .   S
    C125   O435      0.69581      .   S
    C126   O435      0.69581      .   S
    C107   O436      0.69606      .   S
    C96    O436      0.69606      .   S
    C107   O437      0.54290      .   S
    C24    O437      0.54290      .   S
    C137   O438      0.69607      .   S
    C126   O438      0.69607      .   S
    C137   O439      0.54350  1_545   S
    C38    O439      0.54350      .   S
    C153   O440      0.54423      .   S
    C46    O440      0.54423      .   S
    C153   O441      0.69628      .   S
    C158   O441      0.69628      .   S
    C63    O442      0.54418      .   S
    C4     O442      0.54418      .   S
    C63    O443      0.69678      .   S
    C68    O443      0.69678      .   S
    C72    O444      0.54334  1_565   S
    C8     O444      0.54334      .   S
    C72    O445      0.69590      .   S
    C68    O445      0.69590      .   S
    C162   O446      0.54301      .   S
    C50    O446      0.54301      .   S
    C162   O447      0.69524      .   S
    C158   O447      0.69524      .   S
    C96    O448      0.72355      .   S
    C191   O448      0.72355      .   S
    C126   O449      0.72350      .   S
    C195   O449      0.72350      .   S
    C68    O450      0.72402      .   S
    C185   O450      0.72402      .   S
    C158   O451      0.72489      .   S
    C197   O451      0.72489      .   S
    C215   O452      0.61153      .   S
    C109   O452      0.61153      .   S
    C191   O453      0.71065      .   S
    C109   O453      0.71065      .   S
    C191   O454      0.70588      .   S
    C106   O454      0.70588      .   S
    C223   O455      0.61137      .   S
    C139   O455      0.61137      .   S
    C195   O456      0.71070      .   S
    C139   O456      0.71070      .   S
    C195   O457      0.70596      .   S
    C136   O457      0.70596      .   S
    C220   O458      0.61334      .   S
    C136   O458      0.61334  1_455   S
    C212   O459      0.61340      .   S
    C106   O459      0.61340      .   S
    C227   O460      0.61418      .   S
    C154   O460      0.61418      .   S
    C109   O461      0.74135      .   S
    C104   O461      0.74135      .   S
    C185   O462      0.70670      .   S
    C64    O462      0.70670      .   S
    C185   O463      0.71218      .   S
    C71    O463      0.71218      .   S
    C197   O464      0.70686      .   S
    C154   O464      0.70686      .   S
    C197   O465      0.70907      .   S
    C161   O465      0.70907      .   S
    C139   O466      0.74127      .   S
    C134   O466      0.74127      .   S
    C203   O467      0.61419      .   S
    C64    O467      0.61419  1_655   S
    C136   O468      0.74216      .   S
    C129   O468      0.74216      .   S
    C206   O469      0.61142      .   S
    C71    O469      0.61142      .   S
    C106   O470      0.74255      .   S
    C99    O470      0.74255      .   S
    C230   O471      0.60796      .   S
    C161   O471      0.60796      .   S
    C154   O472      0.74165      .   S
    C151   O472      0.74165      .   S
    C64    O473      0.74120      .   S
    C61    O473      0.74120      .   S
    C71    O474      0.74077      .   S
    C84    O474      0.74077      .   S
    C161   O475      0.74786      .   S
    C174   O475      0.74786      .   S
    C104   O476      0.69504      .   S
    C116   O476      0.69504      .   S
    C104   O477      0.70686      .   S
    C112   O477      0.70686      .   S
    C134   O478      0.69489      .   S
    C146   O478      0.69489      .   S
    C134   O479      0.70690      .   S
    C142   O479      0.70690      .   S
    C129   O480      0.70747      .   S
    C142   O480      0.70747      .   S
    C129   O481      0.69507  1_455   S
    C138   O481      0.69507      .   S
    C99    O482      0.70763      .   S
    C112   O482      0.70763      .   S
    C99    O483      0.69514      .   S
    C108   O483      0.69514      .   S
    C29    O484      0.54474      .   S
    C116   O484      0.54474      .   S
    C43    O485      0.54462      .   S
    C146   O485      0.54462      .   S
    C39    O486      0.54467      .   S
    C138   O486      0.54467      .   S
    C25    O487      0.54476      .   S
    C108   O487      0.54476      .   S
    C151   O488      0.69522      .   S
    C175   O488      0.69522      .   S
    C151   O489      0.70738      .   S
    C165   O489      0.70738      .   S
    C61    O490      0.69520  1_655   S
    C85    O490      0.69520      .   S
    C61    O491      0.70730      .   S
    C75    O491      0.70730      .   S
    C84    O492      0.70700      .   S
    C75    O492      0.70700      .   S
    C84    O493      0.69527      .   S
    C87    O493      0.69527      .   S
    C174   O494      0.70712      .   S
    C165   O494      0.70712      .   S
    C174   O495      0.69529      .   S
    C177   O495      0.69529      .   S
    C56    O496      0.54470      .   S
    C175   O496      0.54470      .   S
    C14    O497      0.54471      .   S
    C85    O497      0.54471      .   S
    C16    O498      0.54475      .   S
    C87    O498      0.54475      .   S
    C58    O499      0.54471      .   S
    C177   O499      0.54471      .   S
