# CIF file generated by openbabel 2.4.90, see http://openbabel.sf.net
data_I
_chemical_name_common ''
_cell_length_a 23.722
_cell_length_b 13.826
_cell_length_c 21.392
_cell_angle_alpha 89.955
_cell_angle_beta 89.997
_cell_angle_gamma 90.003
_space_group_name_H-M_alt 'P 1'
_space_group_name_Hall 'P 1'
loop_
    _symmetry_equiv_pos_as_xyz
    x,y,z
loop_
    _atom_site_label
    _atom_site_type_symbol
    _atom_site_fract_x
    _atom_site_fract_y
    _atom_site_fract_z
    _atom_site_occupancy
    N0      N    0.74994   0.39962   0.94066   1.000
    N1      N    0.24993   0.39870   0.94113   1.000
    N2      N    0.50003   0.73421   0.80662   1.000
    N3      N    0.99994   0.73428   0.80663   1.000
    N4      N    0.99995   0.23389   0.69390   1.000
    N5      N    0.50002   0.23384   0.69389   1.000
    N6      N    0.00001   0.76606   0.30606   1.000
    N7      N    0.50011   0.26574   0.19334   1.000
    N8      N    0.99999   0.26568   0.19334   1.000
    N9      N    0.74978   0.89920   0.55913   1.000
    N10     N    0.75003   0.60065   0.05897   1.000
    N11     N    0.24978   0.89895   0.55889   1.000
    N12     N    0.49997   0.76609   0.30607   1.000
    N13     N    0.25002   0.60101   0.05909   1.000
    N14     N    0.75019   0.10099   0.44109   1.000
    N15     N    0.25019   0.10073   0.44085   1.000
    Zr16    Zr   0.49975   0.89038   0.56217   1.000
    O17     O    0.57474   0.89374   0.56096   1.000
    O18     O    0.49971   0.99846   0.59442   1.000
    O19     O    0.42478   0.89365   0.56082   1.000
    O20     O    0.49970   0.84545   0.48757   1.000
    Zr21    Zr   0.99982   0.89034   0.56217   1.000
    O22     O    0.92483   0.89370   0.56092   1.000
    O23     O    0.99987   0.99844   0.59443   1.000
    O24     O    0.07478   0.89361   0.56086   1.000
    O25     O    0.99988   0.84541   0.48757   1.000
    Zr26    Zr   0.99997   0.39118   0.93769   1.000
    O27     O    0.99998   0.34577   0.01210   1.000
    O28     O    0.92498   0.39437   0.93890   1.000
    O29     O    0.99997   0.49915   0.90571   1.000
    O30     O    0.07494   0.39409   0.93906   1.000
    Zr31    Zr   0.49994   0.39119   0.93767   1.000
    O32     O    0.50014   0.34580   0.01209   1.000
    O33     O    0.57492   0.39445   0.93888   1.000
    O34     O    0.42496   0.39404   0.93905   1.000
    O35     O    0.49983   0.49914   0.90571   1.000
    Zr36    Zr   0.00000   0.60882   0.06227   1.000
    O37     O    0.99999   0.50084   0.09425   1.000
    O38     O    0.99998   0.65422   0.98786   1.000
    O39     O    0.07499   0.60581   0.06096   1.000
    O40     O    0.92503   0.60572   0.06096   1.000
    Zr41    Zr   0.49999   0.60878   0.06228   1.000
    O42     O    0.49988   0.50082   0.09425   1.000
    O43     O    0.42502   0.60583   0.06103   1.000
    O44     O    0.50014   0.65417   0.98786   1.000
    O45     O    0.57499   0.60565   0.06094   1.000
    Zr46    Zr   0.00016   0.10962   0.43781   1.000
    O47     O    0.00009   0.15455   0.51240   1.000
    O48     O    0.92519   0.10634   0.43912   1.000
    O49     O    0.07514   0.10625   0.43907   1.000
    O50     O    0.00010   0.00152   0.40554   1.000
    Zr51    Zr   0.50021   0.10955   0.43780   1.000
    O52     O    0.50026   0.00148   0.40554   1.000
    O53     O    0.42523   0.10619   0.43901   1.000
    O54     O    0.57518   0.10628   0.43915   1.000
    O55     O    0.50028   0.15449   0.51239   1.000
    O56     O    0.50016   0.15671   0.36532   1.000
    O57     O    0.49985   0.84323   0.63464   1.000
    O58     O    1.00000   0.65630   0.13453   1.000
    O59     O    0.49999   0.65629   0.13454   1.000
    O60     O    0.00010   0.15674   0.36533   1.000
    O61     O    0.49997   0.34367   0.86541   1.000
    O62     O    0.99997   0.34368   0.86543   1.000
    O63     O    0.99987   0.84323   0.63465   1.000
loop_
    _geom_bond_atom_site_label_1
    _geom_bond_atom_site_label_2
    _geom_bond_distance
    _geom_bond_site_symmetry_2
    _ccdc_geom_bond_type
    Zr16   O17       1.77960      .   S
    N9     O17       4.15324      .   S
    Zr16   O18       1.64630      .   S
    N5     O18       3.88970  1_545   S
    Zr16   O19       1.77924      .   S
    N11    O19       4.15237      .   S
    Zr16   O20       1.71295      .   S
    N12    O20       4.03559      .   S
    Zr21   O22       1.77969      .   S
    N9     O22       4.15334      .   S
    Zr21   O23       1.64671      .   S
    N4     O23       3.89048  1_545   S
    Zr21   O24       1.77907  1_655   S
    N11    O24       4.15213      .   S
    Zr21   O25       1.71294      .   S
    N6     O25       4.03566  1_455   S
    Zr26   O27       1.71064  1_556   S
    N8     O27       4.03124      .   S
    Zr26   O28       1.77964      .   S
    N0     O28       4.15311      .   S
    Zr26   O29       1.64156      .   S
    N3     O29       3.87951      .   S
    Zr26   O30       1.77902  1_655   S
    N1     O30       4.15195      .   S
    Zr31   O32       1.71078  1_556   S
    N7     O32       4.03143      .   S
    Zr31   O33       1.77940      .   S
    N0     O33       4.15264      .   S
    Zr31   O34       1.77944      .   S
    N1     O34       4.15272      .   S
    Zr31   O35       1.64114      .   S
    N2     O35       3.87885      .   S
    Zr36   O37       1.64168  1_455   S
    N8     O37       3.87989      .   S
    Zr36   O38       1.71055  1_454   S
    N3     O38       4.03102      .   S
    Zr36   O39       1.77955      .   S
    N13    O39       4.15275      .   S
    Zr36   O40       1.77917  1_455   S
    N10    O40       4.15215      .   S
    Zr41   O42       1.64128      .   S
    N7     O42       3.87903      .   S
    Zr41   O43       1.77919      .   S
    N13    O43       4.15219      .   S
    Zr41   O44       1.71068  1_554   S
    N2     O44       4.03123      .   S
    Zr41   O45       1.77978      .   S
    N10    O45       4.15315      .   S
    Zr46   O47       1.71284      .   S
    N4     O47       4.03536  1_655   S
    Zr46   O48       1.77912  1_455   S
    N14    O48       4.15224      .   S
    Zr46   O49       1.77963      .   S
    N15    O49       4.15324      .   S
    Zr46   O50       1.64681      .   S
    N6     O50       3.89070  1_565   S
    Zr51   O52       1.64634      .   S
    N12    O52       3.88978  1_565   S
    Zr51   O53       1.77955      .   S
    N15    O53       4.15316      .   S
    Zr51   O54       1.77929      .   S
    N14    O54       4.15245      .   S
    Zr51   O55       1.71288      .   S
    N5     O55       4.03539      .   S
    Zr51   O56       1.68148      .   S
    N7     O56       3.97478      .   S
    Zr16   O57       1.68141      .   S
    N2     O57       3.97459      .   S
    Zr36   O58       1.67997  1_455   S
    N6     O58       3.97185  1_455   S
    Zr41   O59       1.68010      .   S
    N12    O59       3.97205      .   S
    N8     O60       3.97453  1_655   S
    Zr46   O60       1.68135      .   S
    Zr31   O61       1.68014      .   S
    N5     O61       3.97205      .   S
    Zr26   O62       1.68006      .   S
    N4     O62       3.97199      .   S
    Zr21   O63       1.68128      .   S
    N3     O63       3.97434      .   S
