# CIF file generated by openbabel 2.4.90, see http://openbabel.sf.net
data_I
_chemical_name_common ''
_cell_length_a 23.722
_cell_length_b 13.826
_cell_length_c 21.392
_cell_angle_alpha 89.955
_cell_angle_beta 89.997
_cell_angle_gamma 90.003
_space_group_name_H-M_alt 'P 1'
_space_group_name_Hall 'P 1'
loop_
    _symmetry_equiv_pos_as_xyz
    x,y,z
loop_
    _atom_site_label
    _atom_site_type_symbol
    _atom_site_fract_x
    _atom_site_fract_y
    _atom_site_fract_z
    _atom_site_occupancy
    N0      N    0.74994   0.39962   0.94066   1.000
    N1      N    0.24993   0.39870   0.94113   1.000
    N2      N    0.50003   0.73421   0.80662   1.000
    N3      N    0.99994   0.73428   0.80663   1.000
    N4      N    0.99995   0.23389   0.69390   1.000
    N5      N    0.50002   0.23384   0.69389   1.000
    N6      N    0.00001   0.76606   0.30606   1.000
    N7      N    0.50011   0.26574   0.19334   1.000
    N8      N    0.99999   0.26568   0.19334   1.000
    N9      N    0.74978   0.89920   0.55913   1.000
    N10     N    0.75003   0.60065   0.05897   1.000
    N11     N    0.24978   0.89895   0.55889   1.000
    N12     N    0.49997   0.76609   0.30607   1.000
    N13     N    0.25002   0.60101   0.05909   1.000
    N14     N    0.75019   0.10099   0.44109   1.000
    N15     N    0.25019   0.10073   0.44085   1.000
    Zr16    Zr   0.49975   0.89038   0.56217   1.000
    O17     O    0.57474   0.89374   0.56096   1.000
    O18     O    0.49971   0.99846   0.59442   1.000
    O19     O    0.42478   0.89365   0.56082   1.000
    O20     O    0.50001   0.83379   0.63226   1.000
    O21     O    0.49970   0.84545   0.48757   1.000
    O22     O    0.49970   0.85266   0.63702   1.000
    Zr23    Zr   0.99982   0.89034   0.56217   1.000
    O24     O    0.92483   0.89370   0.56092   1.000
    O25     O    0.99987   0.99844   0.59443   1.000
    O26     O    0.99986   0.85266   0.63703   1.000
    O27     O    0.99987   0.83379   0.63227   1.000
    O28     O    0.07478   0.89361   0.56086   1.000
    O29     O    0.99988   0.84541   0.48757   1.000
    Zr30    Zr   0.99997   0.39118   0.93769   1.000
    O31     O    0.99998   0.34577   0.01210   1.000
    O32     O    0.92498   0.39437   0.93890   1.000
    O33     O    0.99997   0.49915   0.90571   1.000
    O34     O    0.07494   0.39409   0.93906   1.000
    O35     O    0.99998   0.33426   0.86785   1.000
    O36     O    0.99996   0.35310   0.86300   1.000
    Zr37    Zr   0.49994   0.39119   0.93767   1.000
    O38     O    0.50014   0.34580   0.01209   1.000
    O39     O    0.57492   0.39445   0.93888   1.000
    O40     O    0.50012   0.33426   0.86783   1.000
    O41     O    0.42496   0.39404   0.93905   1.000
    O42     O    0.49982   0.35309   0.86299   1.000
    O43     O    0.49983   0.49914   0.90571   1.000
    Zr44    Zr   0.00000   0.60882   0.06227   1.000
    O45     O    0.99999   0.50084   0.09425   1.000
    O46     O    0.99998   0.65422   0.98786   1.000
    O47     O    0.99999   0.66573   0.13212   1.000
    O48     O    0.07499   0.60581   0.06096   1.000
    O49     O    0.00000   0.64688   0.13695   1.000
    O50     O    0.92503   0.60572   0.06096   1.000
    Zr51    Zr   0.49999   0.60878   0.06228   1.000
    O52     O    0.49988   0.50082   0.09425   1.000
    O53     O    0.42502   0.60583   0.06103   1.000
    O54     O    0.50015   0.64687   0.13696   1.000
    O55     O    0.50014   0.65417   0.98786   1.000
    O56     O    0.49983   0.66571   0.13212   1.000
    O57     O    0.57499   0.60565   0.06094   1.000
    Zr58    Zr   0.00016   0.10962   0.43781   1.000
    O59     O    0.00010   0.16617   0.36770   1.000
    O60     O    0.00010   0.14730   0.36295   1.000
    O61     O    0.00009   0.15455   0.51240   1.000
    O62     O    0.92519   0.10634   0.43912   1.000
    O63     O    0.07514   0.10625   0.43907   1.000
    O64     O    0.00010   0.00152   0.40554   1.000
    Zr65    Zr   0.50021   0.10955   0.43780   1.000
    O66     O    0.50032   0.14728   0.36295   1.000
    O67     O    0.50000   0.16615   0.36770   1.000
    O68     O    0.50026   0.00148   0.40554   1.000
    O69     O    0.42523   0.10619   0.43901   1.000
    O70     O    0.57518   0.10628   0.43915   1.000
    O71     O    0.50028   0.15449   0.51239   1.000
loop_
    _geom_bond_atom_site_label_1
    _geom_bond_atom_site_label_2
    _geom_bond_distance
    _geom_bond_site_symmetry_2
    _ccdc_geom_bond_type
    Zr16   O17       1.77960      .   S
    N9     O17       4.15324      .   S
    Zr16   O18       1.64630      .   S
    N5     O18       3.88970  1_545   S
    Zr16   O19       1.77924      .   S
    N11    O19       4.15237      .   S
    Zr16   O20       1.69080      .   S
    N2     O20       3.97478      .   S
    Zr16   O21       1.71295      .   S
    N12    O21       4.03559      .   S
    Zr16   O22       1.68366      .   S
    N2     O22       3.97934      .   S
    Zr23   O24       1.77969      .   S
    N9     O24       4.15334      .   S
    Zr23   O25       1.64671      .   S
    N4     O25       3.89048  1_545   S
    Zr23   O26       1.68354      .   S
    N3     O26       3.97909      .   S
    Zr23   O27       1.69066      .   S
    N3     O27       3.97451      .   S
    Zr23   O28       1.77907  1_655   S
    N11    O28       4.15213      .   S
    Zr23   O29       1.71294      .   S
    N6     O29       4.03566  1_455   S
    Zr30   O31       1.71064  1_556   S
    N8     O31       4.03124      .   S
    Zr30   O32       1.77964      .   S
    N0     O32       4.15311      .   S
    Zr30   O33       1.64156      .   S
    N3     O33       3.87951      .   S
    Zr30   O34       1.77902  1_655   S
    N1     O34       4.15195      .   S
    Zr30   O35       1.68923      .   S
    N4     O35       3.97243      .   S
    Zr30   O36       1.68255      .   S
    N4     O36       3.97649      .   S
    Zr37   O38       1.71078  1_556   S
    N7     O38       4.03143      .   S
    Zr37   O39       1.77940      .   S
    N0     O39       4.15264      .   S
    Zr37   O40       1.68930      .   S
    N5     O40       3.97250      .   S
    Zr37   O41       1.77944      .   S
    N1     O41       4.15272      .   S
    Zr37   O42       1.68264      .   S
    N5     O42       3.97653      .   S
    Zr37   O43       1.64114      .   S
    N2     O43       3.87885      .   S
    Zr44   O45       1.64168  1_455   S
    N8     O45       3.87989      .   S
    Zr44   O46       1.71055  1_454   S
    N3     O46       4.03102      .   S
    Zr44   O47       1.68921  1_455   S
    N6     O47       3.97222  1_455   S
    Zr44   O48       1.77955      .   S
    N13    O48       4.15275      .   S
    Zr44   O49       1.68239      .   S
    N6     O49       3.97641      .   S
    Zr44   O50       1.77917  1_455   S
    N10    O50       4.15215      .   S
    Zr51   O52       1.64128      .   S
    N7     O52       3.87903      .   S
    Zr51   O53       1.77919      .   S
    N13    O53       4.15219      .   S
    Zr51   O54       1.68252      .   S
    N12    O54       3.97661      .   S
    Zr51   O55       1.71068  1_554   S
    N2     O55       4.03123      .   S
    Zr51   O56       1.68934      .   S
    N12    O56       3.97244      .   S
    Zr51   O57       1.77978      .   S
    N10    O57       4.15315      .   S
    Zr58   O59       1.69076      .   S
    N8     O59       3.97468  1_655   S
    Zr58   O60       1.68358      .   S
    N8     O60       3.97931  1_655   S
    Zr58   O61       1.71284      .   S
    N4     O61       4.03536  1_655   S
    Zr58   O62       1.77912  1_455   S
    N14    O62       4.15224      .   S
    Zr58   O63       1.77963      .   S
    N15    O63       4.15324      .   S
    Zr58   O64       1.64681      .   S
    N6     O64       3.89070  1_565   S
    Zr65   O66       1.68369      .   S
    N7     O66       3.97957      .   S
    Zr65   O67       1.69091      .   S
    N7     O67       3.97493      .   S
    Zr65   O68       1.64634      .   S
    N12    O68       3.88978  1_565   S
    Zr65   O69       1.77955      .   S
    N15    O69       4.15316      .   S
    Zr65   O70       1.77929      .   S
    N14    O70       4.15245      .   S
    Zr65   O71       1.71288      .   S
    N5     O71       4.03539      .   S
