# CIF file generated by openbabel 2.4.90, see http://openbabel.sf.net
data_I
_chemical_name_common ''
_cell_length_a 23.722
_cell_length_b 13.826
_cell_length_c 21.392
_cell_angle_alpha 89.955
_cell_angle_beta 89.997
_cell_angle_gamma 90.003
_space_group_name_H-M_alt 'P 1'
_space_group_name_Hall 'P 1'
loop_
    _symmetry_equiv_pos_as_xyz
    x,y,z
loop_
    _atom_site_label
    _atom_site_type_symbol
    _atom_site_fract_x
    _atom_site_fract_y
    _atom_site_fract_z
    _atom_site_occupancy
    Zr0     Zr   0.99997   0.39118   0.93769   1.000
    Zr1     Zr   0.49994   0.39119   0.93767   1.000
    Zr2     Zr   0.00000   0.60882   0.06227   1.000
    Zr3     Zr   0.49999   0.60878   0.06228   1.000
    Zr4     Zr   0.00016   0.10962   0.43781   1.000
    Zr5     Zr   0.50021   0.10955   0.43780   1.000
    Zr6     Zr   0.99982   0.89034   0.56217   1.000
    Zr7     Zr   0.49975   0.89038   0.56217   1.000
    N8      N    0.74994   0.39962   0.94066   1.000
    O9      O    0.64990   0.39770   0.94010   1.000
    O10     O    0.84999   0.39756   0.94012   1.000
    N11     N    0.24993   0.39870   0.94113   1.000
    O12     O    0.14990   0.39700   0.94044   1.000
    O13     O    0.34998   0.39688   0.94042   1.000
    N14     N    0.50003   0.73421   0.80662   1.000
    O15     O    0.50029   0.69956   0.91345   1.000
    O16     O    0.49973   0.60708   0.87374   1.000
    O17     O    0.49965   0.81493   0.71187   1.000
    O18     O    0.50026   0.77720   0.70236   1.000
    N19     N    0.99994   0.73428   0.80663   1.000
    O20     O    0.99997   0.60712   0.87374   1.000
    O21     O    0.99991   0.81499   0.71188   1.000
    O22     O    0.99993   0.77724   0.70237   1.000
    O23     O    0.99997   0.69962   0.91346   1.000
    N24     N    0.99995   0.23389   0.69390   1.000
    O25     O    0.00002   0.19948   0.58700   1.000
    O26     O    0.99993   0.10654   0.62669   1.000
    O27     O    0.99995   0.31503   0.78832   1.000
    O28     O    0.99998   0.27734   0.79800   1.000
    N29     N    0.50002   0.23384   0.69389   1.000
    O30     O    0.50034   0.19943   0.58699   1.000
    O31     O    0.49967   0.10653   0.62668   1.000
    O32     O    0.49970   0.31499   0.78830   1.000
    O33     O    0.50030   0.27732   0.79799   1.000
    N34     N    0.00001   0.76606   0.30606   1.000
    O35     O    0.99995   0.80047   0.41297   1.000
    O36     O    0.00004   0.89341   0.37328   1.000
    O37     O    0.00000   0.68494   0.21163   1.000
    O38     O    0.99999   0.72264   0.20196   1.000
    N39     N    0.50011   0.26574   0.19334   1.000
    O40     O    0.50033   0.30040   0.08651   1.000
    O41     O    0.49977   0.39287   0.12622   1.000
    O42     O    0.50042   0.18501   0.28810   1.000
    O43     O    0.49979   0.22275   0.29760   1.000
    N44     N    0.99999   0.26568   0.19334   1.000
    O45     O    0.99998   0.30036   0.08651   1.000
    O46     O    0.99999   0.39286   0.12622   1.000
    O47     O    0.00003   0.18498   0.28809   1.000
    O48     O    0.00003   0.22273   0.29760   1.000
    N49     N    0.74978   0.89920   0.55913   1.000
    O50     O    0.84984   0.89707   0.55966   1.000
    O51     O    0.64973   0.89709   0.55975   1.000
    N52     N    0.75003   0.60065   0.05897   1.000
    O53     O    0.64998   0.60252   0.05960   1.000
    O54     O    0.85006   0.60263   0.05964   1.000
    N55     N    0.24978   0.89895   0.55889   1.000
    O56     O    0.34981   0.89692   0.55947   1.000
    O57     O    0.14974   0.89689   0.55956   1.000
    N58     N    0.49997   0.76609   0.30607   1.000
    O59     O    0.49964   0.80051   0.41297   1.000
    O60     O    0.50031   0.89340   0.37328   1.000
    O61     O    0.50030   0.68496   0.21164   1.000
    O62     O    0.49966   0.72264   0.20197   1.000
    N63     N    0.25002   0.60101   0.05909   1.000
    O64     O    0.14997   0.60281   0.05966   1.000
    O65     O    0.35005   0.60288   0.05977   1.000
    N66     N    0.75019   0.10099   0.44109   1.000
    O67     O    0.85023   0.10306   0.44043   1.000
    O68     O    0.65015   0.10301   0.44050   1.000
    N69     N    0.25019   0.10073   0.44085   1.000
    O70     O    0.35024   0.10284   0.44023   1.000
    O71     O    0.15013   0.10287   0.44032   1.000
loop_
    _geom_bond_atom_site_label_1
    _geom_bond_atom_site_label_2
    _geom_bond_distance
    _geom_bond_site_symmetry_2
    _ccdc_geom_bond_type
    N8     O9        2.37339      .   S
    Zr1    O9        3.55881      .   S
    N8     O10       2.37360      .   S
    Zr0    O10       3.55929      .   S
    N11    O12       2.37307      .   S
    Zr0    O12       3.55803  1_655   S
    N11    O13       2.37340      .   S
    Zr1    O13       3.55888      .   S
    N14    O15       2.33465      .   S
    Zr3    O15       3.42136  1_554   S
    N14    O16       2.26877      .   S
    Zr1    O16       3.28228      .   S
    N14    O17       2.31299      .   S
    Zr7    O17       3.36733      .   S
    N14    O18       2.30771      .   S
    Zr7    O18       3.38160      .   S
    N19    O20       2.26893      .   S
    Zr0    O20       3.28311      .   S
    N19    O21       2.31291      .   S
    Zr6    O21       3.36708      .   S
    N19    O22       2.30755      .   S
    Zr6    O22       3.38132      .   S
    N19    O23       2.33455      .   S
    Zr2    O23       3.42111  1_454   S
    N24    O25       2.33613  1_655   S
    Zr4    O25       3.42567      .   S
    N24    O26       2.27404      .   S
    Zr6    O26       3.29343  1_565   S
    N24    O27       2.31124      .   S
    Zr0    O27       3.36510      .   S
    N24    O28       2.30703      .   S
    Zr0    O28       3.37845      .   S
    N29    O30       2.33614      .   S
    Zr5    O30       3.42577      .   S
    N29    O31       2.27370      .   S
    Zr7    O31       3.29260  1_565   S
    N29    O32       2.31118      .   S
    Zr1    O32       3.36528      .   S
    N29    O33       2.30704      .   S
    Zr1    O33       3.37859      .   S
    N34    O35       2.33633  1_455   S
    Zr6    O35       3.42589      .   S
    N34    O36       2.27417      .   S
    Zr4    O36       3.29362  1_545   S
    N34    O37       2.31131      .   S
    Zr2    O37       3.36479      .   S
    N34    O38       2.30685  1_455   S
    Zr2    O38       3.37843  1_455   S
    N39    O40       2.33473      .   S
    Zr1    O40       3.42156  1_556   S
    N39    O41       2.26878      .   S
    Zr3    O41       3.28257      .   S
    N39    O42       2.31319      .   S
    Zr5    O42       3.36737      .   S
    N39    O43       2.30777      .   S
    Zr5    O43       3.38182      .   S
    N44    O45       2.33468      .   S
    Zr0    O45       3.42128  1_556   S
    N44    O46       2.26920      .   S
    Zr2    O46       3.28335  1_455   S
    N44    O47       2.31308  1_655   S
    Zr4    O47       3.36717      .   S
    N44    O48       2.30762  1_655   S
    Zr4    O48       3.38152      .   S
    N49    O50       2.37380      .   S
    Zr6    O50       3.55937      .   S
    N49    O51       2.37378      .   S
    Zr7    O51       3.55919      .   S
    N52    O53       2.37352      .   S
    Zr3    O53       3.55957      .   S
    N52    O54       2.37311      .   S
    Zr2    O54       3.55835  1_455   S
    N55    O56       2.37328      .   S
    Zr7    O56       3.55848      .   S
    N55    O57       2.37320      .   S
    Zr6    O57       3.55813  1_655   S
    N58    O59       2.33628      .   S
    Zr7    O59       3.42589      .   S
    N58    O60       2.27376      .   S
    Zr5    O60       3.29268  1_545   S
    N58    O61       2.31135      .   S
    Zr3    O61       3.36505      .   S
    N58    O62       2.30697      .   S
    Zr3    O62       3.37867      .   S
    N63    O64       2.37334      .   S
    Zr2    O64       3.55909      .   S
    N63    O65       2.37311      .   S
    Zr3    O65       3.55839      .   S
    N66    O67       2.37325      .   S
    Zr4    O67       3.55825  1_455   S
    N66    O68       2.37331      .   S
    Zr5    O68       3.55858      .   S
    N69    O70       2.37375      .   S
    Zr5    O70       3.55910      .   S
    N69    O71       2.37376      .   S
    Zr4    O71       3.55926      .   S
