# CIF file generated by openbabel 2.4.90, see http://openbabel.sf.net
data_I
_chemical_name_common ''
_cell_length_a 10.246
_cell_length_b 21.667
_cell_length_c 12.269
_cell_angle_alpha 90.126
_cell_angle_beta 90.077
_cell_angle_gamma 93.863
_space_group_name_H-M_alt 'P 1'
_space_group_name_Hall 'P 1'
loop_
    _symmetry_equiv_pos_as_xyz
    x,y,z
loop_
    _atom_site_label
    _atom_site_type_symbol
    _atom_site_fract_x
    _atom_site_fract_y
    _atom_site_fract_z
    _atom_site_occupancy
    Mc0     Mc   0.10114   0.43368   0.53339   1.000
    Mc1     Mc   0.14764   0.05275   0.47420   1.000
    Mc2     Mc   0.27929   0.07415   0.64722   1.000
    Mc3     Mc   0.39630   0.06430   0.46460   1.000
    Mc4     Mc   0.34995   0.44772   0.52316   1.000
    Mc5     Mc   0.21804   0.42395   0.35139   1.000
    Ts6     Ts   0.25099   0.24960   0.50005   1.000
    Mc7     Mc   0.27789   0.57323   0.85218   1.000
    Mc8     Mc   0.10215   0.93405   0.96657   1.000
    Mc9     Mc   0.22111   0.92524   0.14846   1.000
    Mc10    Mc   0.14932   0.55217   0.02626   1.000
    Ts11    Ts   0.24973   0.74969   0.99790   1.000
    Mc12    Mc   0.10226   0.93467   0.53455   1.000
    Mc13    Mc   0.39883   0.56590   0.46660   1.000
    Mc14    Mc   0.14998   0.55201   0.47688   1.000
    Mc15    Mc   0.28193   0.57592   0.64860   1.000
    Mc16    Mc   0.22146   0.92560   0.35243   1.000
    Mc17    Mc   0.35084   0.94676   0.52642   1.000
    Ts18    Ts   0.24887   0.74992   0.49933   1.000
    Mc19    Mc   0.89818   0.06601   0.03337   1.000
    Mc20    Mc   0.77896   0.07480   0.85158   1.000
    Mc21    Mc   0.60193   0.43425   0.96603   1.000
    Mc22    Mc   0.85069   0.44785   0.97375   1.000
    Mc23    Mc   0.72212   0.42678   0.14783   1.000
    Ts24    Ts   0.75043   0.25034   0.99881   1.000
    Mc25    Mc   0.85095   0.94733   0.52668   1.000
    Mc26    Mc   0.89886   0.56577   0.46658   1.000
    Mc27    Mc   0.60218   0.93369   0.53380   1.000
    Mc28    Mc   0.64997   0.55206   0.47686   1.000
    Mc29    Mc   0.78197   0.57591   0.64856   1.000
    Mc30    Mc   0.72222   0.92579   0.35217   1.000
    Ts31    Ts   0.75055   0.74994   0.49885   1.000
    Mc32    Mc   0.22211   0.42674   0.14700   1.000
    Mc33    Mc   0.14917   0.05278   0.02380   1.000
    Mc34    Mc   0.10193   0.43425   0.96601   1.000
    Mc35    Mc   0.35070   0.44784   0.97375   1.000
    Mc36    Mc   0.27920   0.07456   0.85111   1.000
    Ts37    Ts   0.25042   0.25032   0.99832   1.000
    Mc38    Mc   0.77788   0.57323   0.85216   1.000
    Mc39    Mc   0.89807   0.56576   0.03396   1.000
    Mc40    Mc   0.85113   0.94729   0.97581   1.000
    Mc41    Mc   0.72111   0.92519   0.14830   1.000
    Ts42    Ts   0.74969   0.74969   0.99780   1.000
    Mc43    Mc   0.60113   0.43380   0.53342   1.000
    Mc44    Mc   0.64737   0.05200   0.47486   1.000
    Mc45    Mc   0.89576   0.06481   0.46484   1.000
    Mc46    Mc   0.71799   0.42396   0.35141   1.000
    Mc47    Mc   0.84996   0.44763   0.52318   1.000
    Mc48    Mc   0.77821   0.07436   0.64766   1.000
    Ts49    Ts   0.74966   0.24955   0.50009   1.000
