# CIF file generated by openbabel 2.4.90, see http://openbabel.sf.net
data_I
_chemical_name_common ''
_cell_length_a 10.246
_cell_length_b 21.667
_cell_length_c 12.269
_cell_angle_alpha 90.126
_cell_angle_beta 90.077
_cell_angle_gamma 93.863
_space_group_name_H-M_alt 'P 1'
_space_group_name_Hall 'P 1'
loop_
    _symmetry_equiv_pos_as_xyz
    x,y,z
loop_
    _atom_site_label
    _atom_site_type_symbol
    _atom_site_fract_x
    _atom_site_fract_y
    _atom_site_fract_z
    _atom_site_occupancy
    C0      C    0.24590   0.28048   0.49800   1.000
    C1      C    0.24331   0.78074   0.49702   1.000
    C2      C    0.74478   0.28043   0.49803   1.000
    C3      C    0.74542   0.78079   0.49641   1.000
    C4      C    0.23561   0.33647   0.49420   1.000
    C5      C    0.23352   0.83675   0.49355   1.000
    C6      C    0.73509   0.33646   0.49427   1.000
    C7      C    0.73606   0.83682   0.49283   1.000
    C8      C    0.25553   0.21944   0.99751   1.000
    C9      C    0.25475   0.71881   0.99688   1.000
    C10     C    0.75554   0.21947   0.99820   1.000
    C11     C    0.75471   0.71881   0.99670   1.000
    C12     C    0.26498   0.16339   0.99304   1.000
    C13     C    0.26423   0.66275   0.99288   1.000
    C14     C    0.76497   0.16342   0.99390   1.000
    C15     C    0.76421   0.66275   0.99283   1.000
    C16     C    0.25648   0.21876   0.50231   1.000
    C17     C    0.25411   0.71908   0.50140   1.000
    C18     C    0.75483   0.21868   0.50232   1.000
    C19     C    0.75556   0.71909   0.50099   1.000
    C20     C    0.26599   0.16271   0.50570   1.000
    C21     C    0.26454   0.66312   0.50535   1.000
    C22     C    0.76393   0.16260   0.50576   1.000
    C23     C    0.76516   0.66308   0.50516   1.000
    C24     C    0.24536   0.28119   0.00271   1.000
    C25     C    0.24465   0.78057   0.00185   1.000
    C26     C    0.74538   0.28122   0.00316   1.000
    C27     C    0.74461   0.78057   0.00167   1.000
    C28     C    0.23581   0.33724   0.00000   1.000
    C29     C    0.23528   0.83663   0.00000   1.000
    C30     C    0.73581   0.33727   0.00000   1.000
    C31     C    0.73523   0.83663   0.00000   1.000
    O32     O    0.10114   0.43368   0.53339   1.000
    O33     O    0.10226   0.93467   0.53455   1.000
    O34     O    0.60113   0.43380   0.53342   1.000
    O35     O    0.60218   0.93369   0.53380   1.000
    O36     O    0.21804   0.42395   0.35139   1.000
    O37     O    0.22146   0.92560   0.35243   1.000
    O38     O    0.71799   0.42396   0.35141   1.000
    O39     O    0.72222   0.92579   0.35217   1.000
    O40     O    0.34995   0.44772   0.52316   1.000
    O41     O    0.35084   0.94676   0.52642   1.000
    O42     O    0.84996   0.44763   0.52318   1.000
    O43     O    0.85095   0.94733   0.52668   1.000
    O44     O    0.89818   0.06601   0.03337   1.000
    O45     O    0.89807   0.56576   0.03396   1.000
    O46     O    0.27920   0.07456   0.85111   1.000
    O47     O    0.27789   0.57323   0.85218   1.000
    O48     O    0.77896   0.07480   0.85158   1.000
    O49     O    0.77788   0.57323   0.85216   1.000
    O50     O    0.14917   0.05278   0.02380   1.000
    O51     O    0.14932   0.55217   0.02626   1.000
    O52     O    0.39630   0.06430   0.46460   1.000
    O53     O    0.39883   0.56590   0.46660   1.000
    O54     O    0.89576   0.06481   0.46484   1.000
    O55     O    0.89886   0.56577   0.46658   1.000
    O56     O    0.27929   0.07415   0.64722   1.000
    O57     O    0.28193   0.57592   0.64860   1.000
    O58     O    0.77821   0.07436   0.64766   1.000
    O59     O    0.78197   0.57591   0.64856   1.000
    O60     O    0.14764   0.05275   0.47420   1.000
    O61     O    0.14998   0.55201   0.47688   1.000
    O62     O    0.64737   0.05200   0.47486   1.000
    O63     O    0.64997   0.55206   0.47686   1.000
    O64     O    0.10193   0.43425   0.96601   1.000
    O65     O    0.10215   0.93405   0.96657   1.000
    O66     O    0.60193   0.43425   0.96603   1.000
    O67     O    0.22211   0.42674   0.14700   1.000
    O68     O    0.22111   0.92524   0.14846   1.000
    O69     O    0.72212   0.42678   0.14783   1.000
    O70     O    0.72111   0.92519   0.14830   1.000
    O71     O    0.35070   0.44784   0.97375   1.000
    O72     O    0.85069   0.44785   0.97375   1.000
    O73     O    0.85113   0.94729   0.97581   1.000
loop_
    _geom_bond_atom_site_label_1
    _geom_bond_atom_site_label_2
    _geom_bond_distance
    _geom_bond_site_symmetry_2
    _ccdc_geom_bond_type
    C28    C24       1.22545      .   S
    C29    C25       1.22509      .   S
    C30    C26       1.22570      .   S
    C31    C27       1.22507      .   S
    C27    C11       1.35023  1_554   S
    C25    C9        1.35024  1_554   S
    C24    C8        1.35030  1_554   S
    C26    C10       1.35019  1_554   S
    C7     C3        1.22518      .   S
    C5     C1        1.22532      .   S
    C4     C0        1.22569      .   S
    C6     C2        1.22569      .   S
    C3     C19       1.34910      .   S
    C1     C17       1.34926      .   S
    C0     C16       1.35003      .   S
    C2     C18       1.34997      .   S
    C19    C23       1.22520      .   S
    C17    C21       1.22534      .   S
    C16    C20       1.22572      .   S
    C18    C22       1.22570      .   S
    C15    C11       1.22587      .   S
    C13    C9        1.22590      .   S
    C12    C8        1.22592      .   S
    C14    C10       1.22584      .   S
