# CIF file generated by openbabel 2.4.90, see http://openbabel.sf.net
data_I
_chemical_name_common ''
_cell_length_a 10.246
_cell_length_b 21.667
_cell_length_c 12.269
_cell_angle_alpha 90.126
_cell_angle_beta 90.077
_cell_angle_gamma 93.863
_space_group_name_H-M_alt 'P 1'
_space_group_name_Hall 'P 1'
loop_
    _symmetry_equiv_pos_as_xyz
    x,y,z
loop_
    _atom_site_label
    _atom_site_type_symbol
    _atom_site_fract_x
    _atom_site_fract_y
    _atom_site_fract_z
    _atom_site_occupancy
    Al0     Al   0.00005   0.49979   0.50005   1.000
    Al1     Al   0.49933   0.99910   0.50001   1.000
    Al2     Al   0.50001   0.49988   0.50000   1.000
    Al3     Al   0.00016   0.00003   0.99990   1.000
    Al4     Al   0.00002   0.50000   0.00000   1.000
    Al5     Al   0.50015   0.00004   0.30000   1.000
    Al6     Al   0.50000   0.50000   0.90000   1.000
    Al7     Al   0.38234   0.04691   0.74954   1.000
    Al8     Al   0.38277   0.54701   0.75021   1.000
    Al9     Al   0.88212   0.04755   0.74985   1.000
    Al10    Al   0.88277   0.54700   0.75020   1.000
    Al11    Al   0.11724   0.45294   0.24979   1.000
    Al12    Al   0.11775   0.95244   0.25013   1.000
    Al13    Al   0.61722   0.45296   0.24981   1.000
    Al14    Al   0.61798   0.95244   0.25006   1.000
    Al15    Al   0.99942   0.99992   0.49999   1.000
    F16     F    0.49439   0.02134   0.65249   1.000
    F17     F    0.49394   0.52012   0.65280   1.000
    F18     F    0.99483   0.02373   0.65220   1.000
    F19     F    0.99395   0.52010   0.65286   1.000
    F20     F    0.00508   0.47745   0.15231   1.000
    F21     F    0.00605   0.97871   0.15270   1.000
    F22     F    0.50507   0.47745   0.15231   1.000
    F23     F    0.50607   0.97870   0.15271   1.000
    F24     F    0.00608   0.47984   0.34711   1.000
    F25     F    0.00502   0.97629   0.34775   1.000
    F26     F    0.50605   0.47986   0.34712   1.000
    F27     F    0.50509   0.97618   0.34764   1.000
    F28     F    0.49418   0.02130   0.84731   1.000
    F29     F    0.49493   0.52256   0.84769   1.000
    F30     F    0.99397   0.02131   0.84722   1.000
    F31     F    0.99493   0.52256   0.84769   1.000
    Ts32    Ts   0.03374   0.47775   0.51116   1.000
    Ts33    Ts   0.95002   0.48240   0.50776   1.000
    Ts34    Ts   0.96632   0.52178   0.48889   1.000
    Ts35    Ts   0.05002   0.51720   0.49233   1.000
    Ts36    Ts   0.53362   0.97729   0.51127   1.000
    Ts37    Ts   0.44984   0.98165   0.50881   1.000
    Ts38    Ts   0.46499   0.02083   0.48821   1.000
    Ts39    Ts   0.54868   0.01673   0.49163   1.000
    Ts40    Ts   0.53371   0.47785   0.51114   1.000
    Ts41    Ts   0.44999   0.48249   0.50772   1.000
    Ts42    Ts   0.46628   0.52188   0.48887   1.000
    Ts43    Ts   0.55000   0.51727   0.49229   1.000
    Ts44    Ts   0.96617   0.02202   0.01106   1.000
    Ts45    Ts   0.04983   0.01761   0.00787   1.000
    Ts46    Ts   0.03416   0.97804   0.98879   1.000
    Ts47    Ts   0.95048   0.98245   0.99187   1.000
    Ts48    Ts   0.96604   0.52192   0.01132   1.000
    Ts49    Ts   0.04978   0.51739   0.00875   1.000
    Ts50    Ts   0.03399   0.47809   0.98867   1.000
    Ts51    Ts   0.95024   0.48262   0.99125   1.000
    Ts52    Ts   0.53398   0.47809   0.92201   1.000
    Ts53    Ts   0.45023   0.48262   0.92458   1.000
    Ts54    Ts   0.34796   0.05612   0.78340   1.000
    Ts55    Ts   0.34799   0.05599   0.71543   1.000
    Ts56    Ts   0.34781   0.55575   0.78420   1.000
    Ts57    Ts   0.34915   0.55665   0.71634   1.000
    Ts58    Ts   0.84773   0.05664   0.78376   1.000
    Ts59    Ts   0.84748   0.05649   0.71579   1.000
    Ts60    Ts   0.84781   0.55574   0.78419   1.000
    Ts61    Ts   0.84917   0.55664   0.71632   1.000
    Ts62    Ts   0.15084   0.44327   0.28366   1.000
    Ts63    Ts   0.15219   0.44420   0.21553   1.000
    Ts64    Ts   0.15232   0.94349   0.28423   1.000
    Ts65    Ts   0.15220   0.94337   0.21624   1.000
    Ts66    Ts   0.65081   0.44329   0.28368   1.000
    Ts67    Ts   0.65219   0.44423   0.21582   1.000
    Ts68    Ts   0.65273   0.94355   0.28410   1.000
    Ts69    Ts   0.65236   0.94336   0.21614   1.000
    Ts70    Ts   0.03370   0.97817   0.51151   1.000
    Ts71    Ts   0.94993   0.98239   0.50889   1.000
    Ts72    Ts   0.96487   0.02155   0.48827   1.000
    Ts73    Ts   0.04883   0.01753   0.49139   1.000
loop_
    _geom_bond_atom_site_label_1
    _geom_bond_atom_site_label_2
    _geom_bond_distance
    _geom_bond_site_symmetry_2
    _ccdc_geom_bond_type
    F22    Al13      1.76475      .   S
    F20    Al11      1.76479      .   S
    F21    Al12      1.77481      .   S
    F23    Al5       1.86639  1_565   S
    Al11   F24       1.77560      .   S
    Al13   F26       1.77554      .   S
    Al14   Al5       1.75040  1_565   S
    Al12   F25       1.76563      .   S
    F27    Al5       0.78509  1_565   S
    F18    Al9       1.76542      .   S
    F16    Al7       1.76891      .   S
    F17    Al8       1.77635      .   S
    F19    Al10      1.77586      .   S
    Al7    F28       1.77329      .   S
    Al9    F30       1.77511      .   S
    Al10   F31       1.76433      .   S
    F29    Al6       0.81123      .   S
    Al0    Ts32      0.62302      .   S
    Al0    Ts33      0.62279  1_455   S
    Al0    Ts34      0.62258  1_455   S
    Al0    Ts35      0.62266      .   S
    Al1    Ts36      0.62302      .   S
    Al1    Ts37      0.62149      .   S
    Al1    Ts38      0.62373  1_565   S
    Al1    Ts39      0.62167  1_565   S
    Al2    Ts40      0.62298      .   S
    Al2    Ts41      0.62275      .   S
    Al2    Ts42      0.62271      .   S
    Al2    Ts43      0.62259      .   S
    Al3    Ts44      0.62396  1_456   S
    Al3    Ts45      0.62233  1_556   S
    Al3    Ts46      0.62384  1_545   S
    Al3    Ts47      0.62242  1_445   S
    Al4    Ts48      0.62307  1_455   S
    Al4    Ts49      0.62232      .   S
    Al4    Ts50      0.62300  1_554   S
    Al4    Ts51      0.62233  1_454   S
    Al6    Ts52      0.66498      .   S
    Al6    Ts53      0.68407      .   S
    Al7    Ts54      0.58825      .   S
    Al7    Ts55      0.58908      .   S
    Al8    Ts56      0.58930      .   S
    Al8    Ts57      0.58700      .   S
    Al9    Ts58      0.58765      .   S
    Al9    Ts59      0.58932      .   S
    Al10   Ts60      0.58929      .   S
    Al10   Ts61      0.58702      .   S
    Al11   Ts62      0.58712      .   S
    Al11   Ts63      0.59157      .   S
    Al12   Ts64      0.58929      .   S
    Al12   Ts65      0.58773      .   S
    Al13   Ts66      0.58708      .   S
    Al13   Ts67      0.58924      .   S
    Al14   Ts68      0.58937      .   S
    Al14   Ts69      0.58766      .   S
    Al15   Ts70      0.62279  1_655   S
    Al15   Ts71      0.62263      .   S
    Al15   Ts72      0.62306  1_565   S
    Al15   Ts73      0.62228  1_665   S
