# CIF file generated by openbabel 2.4.90, see http://openbabel.sf.net
data_I
_chemical_name_common ''
_cell_length_a 10.246
_cell_length_b 21.667
_cell_length_c 12.269
_cell_angle_alpha 90.126
_cell_angle_beta 90.077
_cell_angle_gamma 93.863
_space_group_name_H-M_alt 'P 1'
_space_group_name_Hall 'P 1'
loop_
    _symmetry_equiv_pos_as_xyz
    x,y,z
loop_
    _atom_site_label
    _atom_site_type_symbol
    _atom_site_fract_x
    _atom_site_fract_y
    _atom_site_fract_z
    _atom_site_occupancy
    N0      N    0.27310   0.08323   0.52147   1.000
    N1      N    0.22550   0.41569   0.47724   1.000
    O2      O    0.26116   0.17635   0.50879   1.000
    N3      N    0.28888   0.93166   0.99883   1.000
    N4      N    0.33564   0.57452   0.00589   1.000
    O5      O    0.25482   0.82684   0.00149   1.000
    N6      N    0.22612   0.91618   0.47814   1.000
    N7      N    0.27453   0.58397   0.52271   1.000
    O8      O    0.26045   0.67684   0.50885   1.000
    N9      N    0.72682   0.41675   0.02222   1.000
    N10     N    0.71139   0.06839   0.00082   1.000
    O11     O    0.73975   0.32361   0.00774   1.000
    N12     N    0.77463   0.58393   0.52266   1.000
    N13     N    0.72703   0.91617   0.47784   1.000
    O14     O    0.73992   0.82314   0.49022   1.000
    N15     N    0.33591   0.07500   0.00501   1.000
    N16     N    0.22682   0.41672   0.02218   1.000
    O17     O    0.27652   0.17483   0.99665   1.000
    N18     N    0.66437   0.92505   0.99450   1.000
    N19     N    0.71125   0.56772   0.00201   1.000
    O20     O    0.74483   0.67253   0.99573   1.000
    N21     N    0.77218   0.08320   0.52186   1.000
    N22     N    0.72540   0.41571   0.47726   1.000
    O23     O    0.75989   0.17630   0.50897   1.000
    Zr24    Zr   0.45697   0.02985   0.74978   1.000
    O25     O    0.38098   0.04875   0.78775   1.000
    O26     O    0.38101   0.04860   0.71129   1.000
    Zr27    Zr   0.95697   0.03086   0.74976   1.000
    O28     O    0.88086   0.04943   0.78795   1.000
    O29     O    0.88058   0.04926   0.71148   1.000
    Zr30    Zr   0.53232   0.97684   0.26260   1.000
    O31     O    0.61383   0.95442   0.21817   1.000
    O32     O    0.61424   0.95464   0.29462   1.000
    Zr33    Zr   0.54278   0.47009   0.24975   1.000
    O34     O    0.61779   0.45065   0.28788   1.000
    O35     O    0.61934   0.45171   0.21154   1.000
    Zr36    Zr   0.95722   0.52989   0.75025   1.000
    O37     O    0.88219   0.54929   0.71211   1.000
    O38     O    0.88066   0.54828   0.78846   1.000
    Zr39    Zr   0.49746   0.51128   0.87384   1.000
    O40     O    0.53696   0.48098   0.91168   1.000
    O41     O    0.44274   0.48608   0.91458   1.000
    Zr42    Zr   0.04294   0.96915   0.25019   1.000
    O43     O    0.11924   0.95073   0.28852   1.000
    O44     O    0.11910   0.95059   0.21204   1.000
    Zr45    Zr   0.43835   0.53356   0.70150   1.000
    O46     O    0.37275   0.55113   0.68775   1.000
    O47     O    0.37123   0.55012   0.76410   1.000
    Zr48    Zr   0.04280   0.47008   0.24974   1.000
    O49     O    0.11782   0.45063   0.28786   1.000
    O50     O    0.11934   0.45168   0.21122   1.000
    Zr51    Zr   0.50001   0.49988   0.50000   1.000
    O52     O    0.44374   0.48032   0.50868   1.000
    O53     O    0.55624   0.51945   0.49132   1.000
    O54     O    0.53793   0.47510   0.51253   1.000
    O55     O    0.46207   0.52464   0.48747   1.000
    Zr56    Zr   0.00016   0.00003   0.99990   1.000
    O57     O    0.03841   0.97529   0.98740   1.000
    O58     O    0.05604   0.01981   0.00886   1.000
    O59     O    0.96192   0.02477   0.01245   1.000
    O60     O    0.94427   0.98025   0.99087   1.000
    Zr61    Zr   0.00005   0.49979   0.50005   1.000
    O62     O    0.05627   0.51937   0.49136   1.000
    O63     O    0.94376   0.48023   0.50872   1.000
    O64     O    0.96210   0.52453   0.48750   1.000
    O65     O    0.03796   0.47500   0.51255   1.000
    Zr66    Zr   0.49933   0.99910   0.50001   1.000
    O67     O    0.44365   0.97947   0.50991   1.000
    O68     O    0.55485   0.01894   0.49058   1.000
    O69     O    0.53790   0.97457   0.51268   1.000
    O70     O    0.46070   0.02355   0.48673   1.000
    Zr71    Zr   0.00002   0.50000   0.00000   1.000
    O72     O    0.03824   0.47535   0.98725   1.000
    O73     O    0.05601   0.51957   0.00985   1.000
    O74     O    0.96179   0.52466   0.01273   1.000
    O75     O    0.94402   0.48045   0.99016   1.000
    Zr76    Zr   0.99942   0.99992   0.49999   1.000
    O77     O    0.96055   0.02425   0.48681   1.000
    O78     O    0.94375   0.98020   0.51000   1.000
    O79     O    0.03799   0.97545   0.51295   1.000
    O80     O    0.05500   0.01973   0.49032   1.000
loop_
    _geom_bond_atom_site_label_1
    _geom_bond_atom_site_label_2
    _geom_bond_distance
    _geom_bond_site_symmetry_2
    _ccdc_geom_bond_type
    N1     O2        5.23819      .   S
    N0     O2        2.03592      .   S
    N4     O5        5.58473      .   S
    N3     O5        2.27468  1_556   S
    N6     O8        5.23562      .   S
    N7     O8        2.03449      .   S
    N10    O11       5.51846      .   S
    N9     O11       2.03860      .   S
    N12    O14       5.23486      .   S
    N13    O14       2.03492      .   S
    N16    O17       5.30832  1_554   S
    N15    O17       2.28844  1_554   S
    N18    O20       5.58795      .   S
    N19    O20       2.27522  1_554   S
    N22    O23       5.23822      .   S
    N21    O23       2.03597      .   S
    Zr24   O25       1.01687      .   S
    N15    O25       2.77024  1_554   S
    Zr24   O26       1.01792      .   S
    N0     O26       2.70589      .   S
    Zr27   O28       1.01584      .   S
    N10    O28       3.17927  1_554   S
    Zr27   O29       1.01682      .   S
    N21    O29       2.70139      .   S
    Zr30   O31       1.13365      .   S
    N18    O31       2.87130  1_556   S
    Zr30   O32       1.06978      .   S
    N13    O32       2.68596      .   S
    Zr33   O34       1.01511      .   S
    N22    O34       2.70206      .   S
    Zr33   O35       1.01781      .   S
    N9     O35       2.70059      .   S
    Zr36   O37       1.01487      .   S
    N12    O37       2.70057      .   S
    Zr36   O38       1.01790      .   S
    N19    O38       3.18758  1_554   S
    Zr39   O40       0.92018      .   S
    N9     O40       2.81544  1_554   S
    Zr39   O41       0.90716      .   S
    N16    O41       2.90944  1_554   S
    Zr42   O43       1.01657      .   S
    N6     O43       2.69869      .   S
    Zr42   O44       1.01596      .   S
    N3     O44       3.18438  1_556   S
    Zr45   O46       0.81217      .   S
    N7     O46       2.39097      .   S
    Zr45   O47       1.10673      .   S
    N4     O47       3.03884  1_554   S
    Zr48   O49       1.01519      .   S
    N1     O49       2.70233      .   S
    Zr48   O50       1.01957      .   S
    N16    O50       2.69763      .   S
    Zr51   O52       0.70059      .   S
    N1     O52       2.58513      .   S
    Zr51   O53       0.70041      .   S
    N12    O53       2.58475      .   S
    Zr51   O54       0.70086      .   S
    N22    O54       2.42194      .   S
    Zr51   O55       0.70055      .   S
    N7     O55       2.42170      .   S
    Zr56   O57       0.70182  1_545   S
    N3     O57       2.79745      .   S
    Zr56   O58       0.70012  1_556   S
    N15    O58       3.03208      .   S
    Zr56   O59       0.70196  1_456   S
    N10    O59       2.79798      .   S
    Zr56   O60       0.70023  1_445   S
    N18    O60       3.03243      .   S
    Zr61   O62       0.70050      .   S
    N7     O62       2.58484      .   S
    Zr61   O63       0.70064  1_455   S
    N22    O63       2.58516      .   S
    Zr61   O64       0.70040  1_455   S
    N12    O64       2.42185      .   S
    Zr61   O65       0.70089      .   S
    N1     O65       2.42159      .   S
    Zr66   O67       0.69918      .   S
    N6     O67       2.56589      .   S
    Zr66   O68       0.69937  1_565   S
    N21    O68       2.57346      .   S
    Zr66   O69       0.70089      .   S
    N13    O69       2.42258      .   S
    Zr66   O70       0.70169  1_565   S
    N0     O70       2.42549      .   S
    Zr71   O72       0.70087  1_554   S
    N16    O72       2.42107  1_554   S
    Zr71   O73       0.70011      .   S
    N4     O73       3.02815      .   S
    Zr71   O74       0.70095  1_455   S
    N19    O74       2.79280      .   S
    Zr71   O75       0.70013  1_454   S
    N9     O75       2.56969  1_554   S
    Zr76   O77       0.70095  1_565   S
    N21    O77       2.42345      .   S
    Zr76   O78       0.70046      .   S
    N13    O78       2.56729      .   S
    Zr76   O79       0.70064  1_655   S
    N6     O79       2.42499      .   S
    Zr76   O80       0.70007  1_665   S
    N0     O80       2.57168      .   S
