# CIF file generated by openbabel 2.4.90, see http://openbabel.sf.net
data_I
_chemical_name_common ''
_cell_length_a 10.246
_cell_length_b 21.667
_cell_length_c 12.269
_cell_angle_alpha 90.126
_cell_angle_beta 90.077
_cell_angle_gamma 93.863
_space_group_name_H-M_alt 'P 1'
_space_group_name_Hall 'P 1'
loop_
    _symmetry_equiv_pos_as_xyz
    x,y,z
loop_
    _atom_site_label
    _atom_site_type_symbol
    _atom_site_fract_x
    _atom_site_fract_y
    _atom_site_fract_z
    _atom_site_occupancy
    Zr0     Zr   0.99942   0.99992   0.49999   1.000
    Zr1     Zr   0.00005   0.49979   0.50005   1.000
    Zr2     Zr   0.49933   0.99910   0.50001   1.000
    Zr3     Zr   0.50001   0.49988   0.50000   1.000
    Zr4     Zr   0.00016   0.00003   0.99990   1.000
    Zr5     Zr   0.00002   0.50000   0.00000   1.000
    Zr6     Zr   0.50015   0.00004   0.30000   1.000
    Zr7     Zr   0.50000   0.50000   0.90000   1.000
    Zr8     Zr   0.38234   0.04691   0.74954   1.000
    Zr9     Zr   0.38277   0.54701   0.75021   1.000
    Zr10    Zr   0.88212   0.04755   0.74985   1.000
    Zr11    Zr   0.88277   0.54700   0.75020   1.000
    Zr12    Zr   0.11724   0.45294   0.24979   1.000
    Zr13    Zr   0.11775   0.95244   0.25013   1.000
    Zr14    Zr   0.61722   0.45296   0.24981   1.000
    Zr15    Zr   0.61798   0.95244   0.25006   1.000
    Zr16    Zr   0.49439   0.02134   0.65249   1.000
    Zr17    Zr   0.49394   0.52012   0.65280   1.000
    Zr18    Zr   0.99483   0.02373   0.65220   1.000
    Zr19    Zr   0.99395   0.52010   0.65286   1.000
    Zr20    Zr   0.00508   0.47745   0.15231   1.000
    Zr21    Zr   0.00605   0.97871   0.15270   1.000
    Zr22    Zr   0.50507   0.47745   0.15231   1.000
    Zr23    Zr   0.50607   0.97870   0.15271   1.000
    Zr24    Zr   0.00608   0.47984   0.34711   1.000
    Zr25    Zr   0.00502   0.97629   0.34775   1.000
    Zr26    Zr   0.50605   0.47986   0.34712   1.000
    Zr27    Zr   0.50509   0.97618   0.34764   1.000
    Zr28    Zr   0.49418   0.02130   0.84731   1.000
    Zr29    Zr   0.49493   0.52256   0.84769   1.000
    Zr30    Zr   0.99397   0.02131   0.84722   1.000
    Zr31    Zr   0.99493   0.52256   0.84769   1.000
    O32     O    0.56114   0.46520   0.20106   1.000
    O33     O    0.06116   0.46519   0.20105   1.000
    O34     O    0.06190   0.96557   0.20141   1.000
    O35     O    0.50311   0.98937   0.22635   1.000
    O36     O    0.06166   0.46639   0.29845   1.000
    O37     O    0.56163   0.46641   0.29847   1.000
    O38     O    0.55907   0.97624   0.27503   1.000
    O39     O    0.06139   0.96436   0.29894   1.000
    O40     O    0.50262   0.98811   0.32382   1.000
    O41     O    0.93847   0.03564   0.70103   1.000
    O42     O    0.43837   0.03412   0.70102   1.000
    O43     O    0.43835   0.53356   0.70150   1.000
    O44     O    0.93836   0.53355   0.70153   1.000
    O45     O    0.43826   0.03410   0.79842   1.000
    O46     O    0.93804   0.03443   0.79853   1.000
    O47     O    0.93885   0.53478   0.79895   1.000
    O48     O    0.49746   0.51128   0.87384   1.000
    N49     N    0.27310   0.08323   0.52147   1.000
    N50     N    0.22550   0.41569   0.47724   1.000
    O51     O    0.07587   0.45020   0.52506   1.000
    O52     O    0.11059   0.03954   0.48065   1.000
    O53     O    0.30505   0.06734   0.67280   1.000
    O54     O    0.42206   0.04800   0.47345   1.000
    O55     O    0.38746   0.46076   0.51737   1.000
    O56     O    0.19284   0.43119   0.32599   1.000
    O57     O    0.26116   0.17635   0.50879   1.000
    N58     N    0.28888   0.93166   0.99883   1.000
    N59     N    0.33564   0.57452   0.00589   1.000
    O60     O    0.30411   0.56668   0.82669   1.000
    O61     O    0.07665   0.95055   0.97490   1.000
    O62     O    0.19527   0.93204   0.17388   1.000
    O63     O    0.11199   0.53913   0.01970   1.000
    O64     O    0.25482   0.82684   0.00149   1.000
    N65     N    0.22612   0.91618   0.47814   1.000
    N66     N    0.27453   0.58397   0.52271   1.000
    O67     O    0.07655   0.95098   0.52591   1.000
    O68     O    0.42413   0.54939   0.47495   1.000
    O69     O    0.11250   0.53896   0.48267   1.000
    O70     O    0.30714   0.56869   0.67400   1.000
    O71     O    0.19554   0.93231   0.32686   1.000
    O72     O    0.38796   0.95985   0.51982   1.000
    O73     O    0.26045   0.67684   0.50885   1.000
    N74     N    0.72682   0.41675   0.02222   1.000
    N75     N    0.71139   0.06839   0.00082   1.000
    O76     O    0.92368   0.04951   0.02500   1.000
    O77     O    0.80475   0.06799   0.82615   1.000
    O78     O    0.57645   0.45069   0.94952   1.000
    O79     O    0.88803   0.46089   0.98031   1.000
    O80     O    0.69589   0.43333   0.17332   1.000
    O81     O    0.73975   0.32361   0.00774   1.000
    N82     N    0.77463   0.58393   0.52266   1.000
    N83     N    0.72703   0.91617   0.47784   1.000
    O84     O    0.88807   0.96048   0.52001   1.000
    O85     O    0.92416   0.54927   0.47495   1.000
    O86     O    0.57647   0.95004   0.52535   1.000
    O87     O    0.61248   0.53902   0.48265   1.000
    O88     O    0.80717   0.56869   0.67397   1.000
    O89     O    0.69616   0.93245   0.32664   1.000
    O90     O    0.73992   0.82314   0.49022   1.000
    N91     N    0.33591   0.07500   0.00501   1.000
    N92     N    0.22682   0.41672   0.02218   1.000
    O93     O    0.19589   0.43329   0.17270   1.000
    O94     O    0.11192   0.03959   0.01782   1.000
    O95     O    0.07645   0.45069   0.97451   1.000
    O96     O    0.38802   0.46088   0.95531   1.000
    O97     O    0.30499   0.06765   0.82572   1.000
    O98     O    0.27652   0.17483   0.99665   1.000
    N99     N    0.66437   0.92505   0.99450   1.000
    N100    N    0.71125   0.56772   0.00201   1.000
    O101    O    0.80410   0.56667   0.82667   1.000
    O102    O    0.92356   0.54932   0.02547   1.000
    O103    O    0.88839   0.96048   0.98183   1.000
    O104    O    0.69533   0.93200   0.17374   1.000
    O105    O    0.74483   0.67253   0.99573   1.000
    N106    N    0.77218   0.08320   0.52186   1.000
    N107    N    0.72540   0.41571   0.47726   1.000
    O108    O    0.57585   0.45032   0.52507   1.000
    O109    O    0.61036   0.03877   0.48115   1.000
    O110    O    0.92167   0.04859   0.47363   1.000
    O111    O    0.69280   0.43121   0.32601   1.000
    O112    O    0.88748   0.46067   0.51740   1.000
    O113    O    0.80419   0.06766   0.67321   1.000
    O114    O    0.75989   0.17630   0.50897   1.000
loop_
    _geom_bond_atom_site_label_1
    _geom_bond_atom_site_label_2
    _geom_bond_distance
    _geom_bond_site_symmetry_2
    _ccdc_geom_bond_type
    Zr22   O32       0.88238      .   S
    Zr14   O32       0.88238      .   S
    Zr20   O33       0.88240      .   S
    Zr12   O33       0.88240      .   S
    Zr21   O34       0.88741      .   S
    Zr13   O34       0.88741      .   S
    Zr23   O35       0.93319      .   S
    Zr6    O35       0.93319  1_545   S
    Zr12   O36       0.88780      .   S
    Zr24   O36       0.88780      .   S
    Zr14   O37       0.88777      .   S
    Zr26   O37       0.88777      .   S
    Zr15   O38       0.87520      .   S
    Zr6    O38       0.87520  1_545   S
    Zr13   O39       0.88281      .   S
    Zr25   O39       0.88281      .   S
    Zr27   O40       0.39254      .   S
    Zr6    O40       0.39254  1_545   S
    Zr18   O41       0.88271      .   S
    Zr10   O41       0.88271      .   S
    Zr16   O42       0.88445      .   S
    Zr8    O42       0.88445      .   S
    Zr17   O43       0.88818      .   S
    Zr9    O43       0.88818      .   S
    Zr19   O44       0.88793      .   S
    Zr11   O44       0.88793      .   S
    Zr8    O45       0.88664      .   S
    Zr28   O45       0.88664      .   S
    Zr10   O46       0.88755      .   S
    Zr30   O46       0.88755      .   S
    Zr11   O47       0.88217      .   S
    Zr31   O47       0.88217      .   S
    Zr29   O48       0.40562      .   S
    Zr7    O48       0.40562      .   S
    N50    O51       1.84639      .   S
    Zr1    O51       1.40178      .   S
    N49    O52       1.92427      .   S
    Zr0    O52       1.40014  1_665   S
    N49    O53       1.92073      .   S
    Zr8    O53       1.32544      .   S
    N49    O54       1.84840      .   S
    Zr2    O54       1.40339  1_565   S
    N50    O55       1.93057      .   S
    Zr3    O55       1.40119      .   S
    N50    O56       1.91955      .   S
    Zr12   O56       1.32103      .   S
    N50    O57       5.23819      .   S
    N49    O57       2.03592      .   S
    N59    O60       2.22621  1_554   S
    Zr9    O60       1.32591      .   S
    N58    O61       2.25845      .   S
    Zr4    O61       1.40364  1_545   S
    N58    O62       2.35349  1_556   S
    Zr13   O62       1.32240      .   S
    N59    O63       2.37324      .   S
    Zr5    O63       1.40021      .   S
    N59    O64       5.58473      .   S
    N58    O64       2.27468  1_556   S
    N65    O67       1.84844      .   S
    Zr0    O67       1.40128  1_655   S
    N66    O68       1.84644      .   S
    Zr3    O68       1.40111      .   S
    N66    O69       1.93037      .   S
    Zr1    O69       1.40099      .   S
    N66    O70       1.91902      .   S
    Zr9    O70       1.32076      .   S
    N65    O71       1.91873      .   S
    Zr13   O71       1.32590      .   S
    N65    O72       1.92112      .   S
    Zr2    O72       1.39836      .   S
    N65    O73       5.23562      .   S
    N66    O73       2.03449      .   S
    N75    O76       2.25937      .   S
    Zr4    O76       1.40392  1_456   S
    N75    O77       2.34819  1_554   S
    Zr10   O77       1.32221      .   S
    N74    O78       1.96519  1_554   S
    Zr7    O78       1.49621      .   S
    N74    O79       1.92326  1_554   S
    Zr5    O79       1.40025  1_454   S
    N74    O80       1.91845      .   S
    Zr14   O80       1.32580      .   S
    N75    O81       5.51846      .   S
    N74    O81       2.03860      .   S
    N83    O84       1.92197      .   S
    Zr0    O84       1.40091      .   S
    N82    O85       1.84647      .   S
    Zr1    O85       1.40080  1_455   S
    N83    O86       1.84690      .   S
    Zr2    O86       1.40178      .   S
    N82    O87       1.93034      .   S
    Zr3    O87       1.40082      .   S
    N82    O88       1.91898      .   S
    Zr11   O88       1.32080      .   S
    N83    O89       1.91883      .   S
    Zr15   O89       1.32609      .   S
    N82    O90       5.23486      .   S
    N83    O90       2.03492      .   S
    N92    O93       1.91146      .   S
    Zr12   O93       1.33104      .   S
    N91    O94       2.37582      .   S
    Zr4    O94       1.40024  1_556   S
    N92    O95       1.84652  1_554   S
    Zr5    O95       1.40174  1_554   S
    N92    O96       2.02758  1_554   S
    Zr7    O96       1.53917      .   S
    N91    O97       2.22585  1_554   S
    Zr8    O97       1.32357      .   S
    N92    O98       5.30832  1_554   S
    N91    O98       2.28844  1_554   S
    N100   O101      2.35404  1_554   S
    Zr11   O101      1.32591      .   S
    N100   O102      2.25601      .   S
    Zr5    O102      1.40190  1_455   S
    N99    O103      2.37607      .   S
    Zr4    O103      1.40045  1_445   S
    N99    O104      2.22476  1_556   S
    Zr15   O104      1.32223      .   S
    N99    O105      5.58795      .   S
    N100   O105      2.27522  1_554   S
    N107   O108      1.84656      .   S
    Zr3    O108      1.40171      .   S
    N106   O109      1.92508      .   S
    Zr2    O109      1.39875  1_565   S
    N106   O110      1.84769      .   S
    Zr0    O110      1.40189  1_565   S
    N107   O111      1.91943      .   S
    Zr14   O111      1.32094      .   S
    N107   O112      1.93059      .   S
    Zr1    O112      1.40129  1_455   S
    N106   O113      1.91963      .   S
    Zr10   O113      1.32597      .   S
    N107   O114      5.23822      .   S
    N106   O114      2.03597      .   S
