# CIF file generated by openbabel 2.4.90, see http://openbabel.sf.net
data_I
_chemical_name_common ''
_cell_length_a 10.878
_cell_length_b 18.066
_cell_length_c 18.067
_cell_angle_alpha 90.186
_cell_angle_beta 90.212
_cell_angle_gamma 90.427
_space_group_name_H-M_alt 'P 1'
_space_group_name_Hall 'P 1'
loop_
    _symmetry_equiv_pos_as_xyz
    x,y,z
loop_
    _atom_site_label
    _atom_site_type_symbol
    _atom_site_fract_x
    _atom_site_fract_y
    _atom_site_fract_z
    _atom_site_occupancy
    Sr0     Sr   0.43647   0.17084   0.58873   1.000
    Sr1     Sr   0.68985   0.91028   0.66911   1.000
    Sr2     Sr   0.18600   0.09042   0.32664   1.000
    Sr3     Sr   0.81552   0.67239   0.90744   1.000
    Sr4     Sr   0.31418   0.32808   0.08921   1.000
    Sr5     Sr   0.06549   0.59072   0.16899   1.000
    Sr6     Sr   0.56356   0.40897   0.82851   1.000
    Cd7     Cd   0.00250   0.63332   0.36543   1.000
    Cd8     Cd   0.49865   0.36660   0.63227   1.000
    Cd9     Cd   0.75362   0.86901   0.86578   1.000
    Cd10    Cd   0.24727   0.13299   0.13089   1.000
    Sr11    Sr   0.93890   0.82940   0.40733   1.000
