# CIF file generated by openbabel 2.4.90, see http://openbabel.sf.net
data_I
_chemical_name_common ''
_cell_length_a 10.878
_cell_length_b 18.066
_cell_length_c 18.067
_cell_angle_alpha 90.186
_cell_angle_beta 90.212
_cell_angle_gamma 90.427
_space_group_name_H-M_alt 'P 1'
_space_group_name_Hall 'P 1'
loop_
    _symmetry_equiv_pos_as_xyz
    x,y,z
loop_
    _atom_site_label
    _atom_site_type_symbol
    _atom_site_fract_x
    _atom_site_fract_y
    _atom_site_fract_z
    _atom_site_occupancy
    N0      N    0.02045   0.69246   0.66319   1.000
    N1      N    0.48232   0.66445   0.68978   1.000
    N2      N    0.22914   0.18922   0.83497   1.000
    N3      N    0.73399   0.80891   0.16297   1.000
    N4      N    0.70724   0.85304   0.50675   1.000
    N5      N    0.27036   0.83665   0.18892   1.000
    N6      N    0.51879   0.30936   0.33486   1.000
    N7      N    0.77135   0.16517   0.80729   1.000
    N8      N    0.98086   0.33599   0.30679   1.000
    N9      N    0.95306   0.99137   0.35002   1.000
    N10     N    0.54734   0.35297   0.00436   1.000
    N11     N    0.20268   0.14678   0.48953   1.000
    N12     N    0.79752   0.50968   0.85196   1.000
    N13     N    0.29735   0.49071   0.14501   1.000
    N14     N    0.04798   0.64713   0.00689   1.000
    N15     N    0.45638   0.99532   0.64388   1.000
    Zr16    Zr   0.93890   0.82940   0.40733   1.000
    O17     O    0.87823   0.81085   0.33583   1.000
    O18     O    0.96305   0.78170   0.48086   1.000
    O19     O    0.04445   0.82511   0.34436   1.000
    Zr20    Zr   0.56356   0.40897   0.82851   1.000
    O21     O    0.62504   0.33779   0.80982   1.000
    O22     O    0.53927   0.48242   0.78044   1.000
    O23     O    0.54499   0.39110   0.88924   1.000
    O24     O    0.45715   0.34552   0.82384   1.000
    Zr25    Zr   0.68985   0.91028   0.66911   1.000
    O26     O    0.71381   0.98359   0.71723   1.000
    O27     O    0.62847   0.83843   0.68760   1.000
    O28     O    0.79511   0.84751   0.67387   1.000
    Zr29    Zr   0.49865   0.36660   0.63227   1.000
    O30     O    0.58447   0.31130   0.68717   1.000
    O31     O    0.51427   0.35420   0.54356   1.000
    O32     O    0.41393   0.31091   0.68800   1.000
    O33     O    0.48429   0.45542   0.64493   1.000
    Zr34    Zr   0.00250   0.63332   0.36543   1.000
    O35     O    0.91798   0.68830   0.30964   1.000
    O36     O    0.01709   0.64633   0.45435   1.000
    O37     O    0.98636   0.54461   0.35239   1.000
    O38     O    0.08679   0.68936   0.31010   1.000
    Zr39    Zr   0.75362   0.86901   0.86578   1.000
    O40     O    0.73855   0.85579   0.95453   1.000
    O41     O    0.83760   0.81370   0.80997   1.000
    O42     O    0.76864   0.95750   0.85277   1.000
    O43     O    0.66834   0.81264   0.81051   1.000
    Zr44    Zr   0.24727   0.13299   0.13089   1.000
    O45     O    0.16349   0.18888   0.18618   1.000
    O46     O    0.33293   0.18820   0.18709   1.000
    O47     O    0.23201   0.14520   0.04252   1.000
    O48     O    0.26379   0.04461   0.14348   1.000
    Zr49    Zr   0.81552   0.67239   0.90744   1.000
    O50     O    0.79157   0.72011   0.98084   1.000
    O51     O    0.87628   0.69081   0.83601   1.000
    O52     O    0.70960   0.67663   0.84468   1.000
    Zr53    Zr   0.43647   0.17084   0.58873   1.000
    O54     O    0.45639   0.11026   0.60630   1.000
    O55     O    0.46048   0.21918   0.51589   1.000
    O56     O    0.37507   0.18856   0.66078   1.000
    O57     O    0.54303   0.17579   0.65177   1.000
    Zr58    Zr   0.31418   0.32808   0.08921   1.000
    O59     O    0.37475   0.31013   0.16105   1.000
    O60     O    0.20799   0.32387   0.15192   1.000
    O61     O    0.28887   0.27975   0.01613   1.000
    Zr62    Zr   0.06549   0.59072   0.16899   1.000
    O63     O    0.95994   0.65359   0.17367   1.000
    O64     O    0.04070   0.51762   0.21706   1.000
    O65     O    0.12616   0.66273   0.18732   1.000
    Zr66    Zr   0.18600   0.09042   0.32664   1.000
    O67     O    0.29209   0.15346   0.32258   1.000
    O68     O    0.12520   0.16227   0.30852   1.000
    O69     O    0.21056   0.01764   0.27839   1.000
    O70     O    0.89641   0.66312   0.94244   1.000
    O71     O    0.80875   0.61547   0.88834   1.000
    O72     O    0.60861   0.94158   0.65984   1.000
    O73     O    0.69646   0.89060   0.61228   1.000
    O74     O    0.35507   0.16200   0.55385   1.000
    O75     O    0.14620   0.55552   0.16007   1.000
    O76     O    0.30779   0.38497   0.10842   1.000
    O77     O    0.94433   0.88609   0.38761   1.000
    O78     O    0.10490   0.05562   0.33523   1.000
    O79     O    0.85829   0.83809   0.44232   1.000
    O80     O    0.39535   0.33723   0.05794   1.000
    O81     O    0.05886   0.61009   0.11225   1.000
    O82     O    0.64503   0.44441   0.83723   1.000
    O83     O    0.19232   0.10980   0.38365   1.000
loop_
    _geom_bond_atom_site_label_1
    _geom_bond_atom_site_label_2
    _geom_bond_distance
    _geom_bond_site_symmetry_2
    _ccdc_geom_bond_type
    Zr16   O17       1.48464      .   S
    N3     O17       3.48973      .   S
    Zr16   O18       1.60789      .   S
    N0     O18       3.72491  1_455   S
    Zr16   O19       1.62135  1_655   S
    N5     O19       3.74391      .   S
    Zr20   O21       1.49233      .   S
    N7     O21       3.51199      .   S
    Zr20   O22       1.61123      .   S
    N1     O22       3.73341      .   S
    Zr20   O23       1.16265      .   S
    N10    O23       2.19326  1_554   S
    Zr20   O24       1.62489      .   S
    N2     O24       3.75081      .   S
    Zr25   O26       1.60108      .   S
    N7     O26       3.70503  1_545   S
    Zr25   O27       1.49457      .   S
    N1     O27       3.51213      .   S
    Zr25   O28       1.61973      .   S
    N0     O28       3.74103  1_455   S
    Zr29   O30       1.69324      .   S
    N7     O30       3.98709      .   S
    Zr29   O31       1.62725      .   S
    N6     O31       3.85466      .   S
    Zr29   O32       1.69551      .   S
    N2     O32       3.99204      .   S
    Zr29   O33       1.62887      .   S
    N1     O33       3.85983      .   S
    Zr34   O35       1.69137  1_455   S
    N3     O35       3.97983      .   S
    Zr34   O36       1.62984      .   S
    N0     O36       3.86147      .   S
    Zr34   O37       1.62719  1_455   S
    N8     O37       3.85539      .   S
    Zr34   O38       1.69250      .   S
    N5     O38       3.98147      .   S
    Zr39   O40       1.63069      .   S
    N3     O40       3.86305  1_554   S
    Zr39   O41       1.69215      .   S
    N0     O41       3.98152  1_455   S
    Zr39   O42       1.62358      .   S
    N7     O42       3.84323  1_545   S
    Zr39   O43       1.69337      .   S
    N1     O43       3.98349      .   S
    Zr44   O45       1.69167      .   S
    N8     O45       3.97890  1_655   S
    Zr44   O46       1.69323      .   S
    N6     O46       3.98282      .   S
    Zr44   O47       1.62048      .   S
    N2     O47       3.83579  1_556   S
    Zr44   O48       1.62484      .   S
    N5     O48       3.84930  1_565   S
    Zr49   O50       1.60266      .   S
    N3     O50       3.71336  1_554   S
    Zr49   O51       1.48947      .   S
    N0     O51       3.49932  1_455   S
    Zr49   O52       1.61592      .   S
    N1     O52       3.73224      .   S
    Zr53   O54       1.16224      .   S
    N15    O54       2.18688  1_565   S
    Zr53   O55       1.60280      .   S
    N6     O55       3.71331      .   S
    Zr53   O56       1.50008      .   S
    N2     O56       3.53000      .   S
    Zr53   O57       1.62391      .   S
    N7     O57       3.74953      .   S
    Zr58   O59       1.49109      .   S
    N6     O59       3.50446      .   S
    Zr58   O60       1.62264      .   S
    N8     O60       3.74644  1_655   S
    Zr58   O61       1.60238      .   S
    N2     O61       3.70721  1_556   S
    Zr62   O63       1.62333  1_455   S
    N3     O63       3.74892      .   S
    Zr62   O64       1.60467      .   S
    N8     O64       3.71877  1_655   S
    Zr62   O65       1.49018      .   S
    N5     O65       3.50132      .   S
    Zr66   O67       1.61743      .   S
    N6     O67       3.73520      .   S
    Zr66   O68       1.49784      .   S
    N8     O68       3.51981  1_655   S
    Zr66   O69       1.59988      .   S
    N5     O69       3.70578  1_565   S
    Zr49   O70       1.09594      .   S
    N14    O70       2.03786  1_454   S
    Zr49   O71       1.08558      .   S
    N12    O71       2.02165      .   S
    Zr25   O72       1.06574      .   S
    N15    O72       1.94680      .   S
    Zr25   O73       1.08829      .   S
    N4     O73       2.02590      .   S
    Zr53   O74       1.09541      .   S
    N11    O74       2.03730      .   S
    N13    O75       2.04415      .   S
    Zr62   O75       1.09998      .   S
    N13    O76       2.02345      .   S
    Zr58   O76       1.08664      .   S
    N9     O77       2.02336      .   S
    Zr16   O77       1.08656      .   S
    N9     O78       2.03069  1_665   S
    Zr66   O78       1.09131      .   S
    N4     O79       2.03626      .   S
    Zr16   O79       1.09488      .   S
    N10    O80       1.93857      .   S
    Zr58   O80       1.06222      .   S
    N14    O81       2.02313      .   S
    Zr62   O81       1.08664      .   S
    Zr20   O82       1.09989      .   S
    N12    O82       2.04411      .   S
    N11    O83       2.02653      .   S
    Zr66   O83       1.08858      .   S
