# CIF file generated by openbabel 2.4.90, see http://openbabel.sf.net
data_I
_chemical_name_common ''
_cell_length_a 10.878
_cell_length_b 18.066
_cell_length_c 18.067
_cell_angle_alpha 90.186
_cell_angle_beta 90.212
_cell_angle_gamma 90.427
_space_group_name_H-M_alt 'P 1'
_space_group_name_Hall 'P 1'
loop_
    _symmetry_equiv_pos_as_xyz
    x,y,z
loop_
    _atom_site_label
    _atom_site_type_symbol
    _atom_site_fract_x
    _atom_site_fract_y
    _atom_site_fract_z
    _atom_site_occupancy
    N0      N    0.02045   0.69246   0.66319   1.000
    N1      N    0.48232   0.66445   0.68978   1.000
    N2      N    0.22914   0.18922   0.83497   1.000
    N3      N    0.73399   0.80891   0.16297   1.000
    N4      N    0.70724   0.85304   0.50675   1.000
    N5      N    0.27036   0.83665   0.18892   1.000
    N6      N    0.51879   0.30936   0.33486   1.000
    N7      N    0.77135   0.16517   0.80729   1.000
    N8      N    0.98086   0.33599   0.30679   1.000
    N9      N    0.95306   0.99137   0.35002   1.000
    N10     N    0.54734   0.35297   0.00436   1.000
    N11     N    0.20268   0.14678   0.48953   1.000
    N12     N    0.79752   0.50968   0.85196   1.000
    N13     N    0.29735   0.49071   0.14501   1.000
    N14     N    0.04798   0.64713   0.00689   1.000
    N15     N    0.45638   0.99532   0.64388   1.000
    Zr16    Zr   0.93890   0.82940   0.40733   1.000
    O17     O    0.85200   0.83473   0.43656   1.000
    O18     O    0.86457   0.84145   0.44808   1.000
    O19     O    0.87823   0.81085   0.33583   1.000
    O20     O    0.96305   0.78170   0.48086   1.000
    O21     O    0.93188   0.88539   0.38624   1.000
    O22     O    0.95677   0.88679   0.38898   1.000
    O23     O    0.04445   0.82511   0.34436   1.000
    Zr24    Zr   0.56356   0.40897   0.82851   1.000
    O25     O    0.62504   0.33779   0.80982   1.000
    O26     O    0.63888   0.45019   0.84054   1.000
    O27     O    0.53927   0.48242   0.78044   1.000
    O28     O    0.54499   0.39110   0.88924   1.000
    O29     O    0.45715   0.34552   0.82384   1.000
    O30     O    0.65118   0.43862   0.83392   1.000
    Zr31    Zr   0.68985   0.91028   0.66911   1.000
    O32     O    0.71381   0.98359   0.71723   1.000
    O33     O    0.60247   0.93575   0.66314   1.000
    O34     O    0.70891   0.89199   0.61170   1.000
    O35     O    0.68401   0.88921   0.61287   1.000
    O36     O    0.61474   0.94741   0.65654   1.000
    O37     O    0.62847   0.83843   0.68760   1.000
    O38     O    0.79511   0.84751   0.67387   1.000
    Zr39    Zr   0.49865   0.36660   0.63227   1.000
    O40     O    0.58447   0.31130   0.68717   1.000
    O41     O    0.51427   0.35420   0.54356   1.000
    O42     O    0.41393   0.31091   0.68800   1.000
    O43     O    0.48429   0.45542   0.64493   1.000
    Zr44    Zr   0.00250   0.63332   0.36543   1.000
    O45     O    0.91798   0.68830   0.30964   1.000
    O46     O    0.01709   0.64633   0.45435   1.000
    O47     O    0.98636   0.54461   0.35239   1.000
    O48     O    0.08679   0.68936   0.31010   1.000
    Zr49    Zr   0.75362   0.86901   0.86578   1.000
    O50     O    0.73855   0.85579   0.95453   1.000
    O51     O    0.83760   0.81370   0.80997   1.000
    O52     O    0.76864   0.95750   0.85277   1.000
    O53     O    0.66834   0.81264   0.81051   1.000
    Zr54    Zr   0.24727   0.13299   0.13089   1.000
    O55     O    0.16349   0.18888   0.18618   1.000
    O56     O    0.33293   0.18820   0.18709   1.000
    O57     O    0.23201   0.14520   0.04252   1.000
    O58     O    0.26379   0.04461   0.14348   1.000
    Zr59    Zr   0.81552   0.67239   0.90744   1.000
    O60     O    0.82114   0.61611   0.88681   1.000
    O61     O    0.79636   0.61483   0.88986   1.000
    O62     O    0.90266   0.66646   0.93670   1.000
    O63     O    0.89016   0.65977   0.94818   1.000
    O64     O    0.79157   0.72011   0.98084   1.000
    O65     O    0.87628   0.69081   0.83601   1.000
    O66     O    0.70960   0.67663   0.84468   1.000
    Zr67    Zr   0.43647   0.17084   0.58873   1.000
    O68     O    0.45639   0.11026   0.60630   1.000
    O69     O    0.46048   0.21918   0.51589   1.000
    O70     O    0.34884   0.16531   0.55960   1.000
    O71     O    0.36130   0.15869   0.54809   1.000
    O72     O    0.37507   0.18856   0.66078   1.000
    O73     O    0.54303   0.17579   0.65177   1.000
    Zr74    Zr   0.31418   0.32808   0.08921   1.000
    O75     O    0.40158   0.33392   0.06370   1.000
    O76     O    0.29539   0.38555   0.10689   1.000
    O77     O    0.38912   0.34053   0.05217   1.000
    O78     O    0.32018   0.38439   0.10996   1.000
    O79     O    0.37475   0.31013   0.16105   1.000
    O80     O    0.20799   0.32387   0.15192   1.000
    O81     O    0.28887   0.27975   0.01613   1.000
    Zr82    Zr   0.06549   0.59072   0.16899   1.000
    O83     O    0.95994   0.65359   0.17367   1.000
    O84     O    0.15244   0.56133   0.16339   1.000
    O85     O    0.04070   0.51762   0.21706   1.000
    O86     O    0.04639   0.60873   0.11165   1.000
    O87     O    0.13996   0.54970   0.15675   1.000
    O88     O    0.07133   0.61145   0.11285   1.000
    O89     O    0.12616   0.66273   0.18732   1.000
    Zr90    Zr   0.18600   0.09042   0.32664   1.000
    O91     O    0.09859   0.06132   0.33190   1.000
    O92     O    0.17990   0.11117   0.38302   1.000
    O93     O    0.29209   0.15346   0.32258   1.000
    O94     O    0.20475   0.10843   0.38429   1.000
    O95     O    0.12520   0.16227   0.30852   1.000
    O96     O    0.21056   0.01764   0.27839   1.000
    O97     O    0.11121   0.04992   0.33855   1.000
loop_
    _geom_bond_atom_site_label_1
    _geom_bond_atom_site_label_2
    _geom_bond_distance
    _geom_bond_site_symmetry_2
    _ccdc_geom_bond_type
    Zr16   O17       1.08924      .   S
    N4     O17       2.05355      .   S
    Zr16   O18       1.11767      .   S
    N4     O18       2.02824      .   S
    Zr16   O19       1.48464      .   S
    N3     O19       3.48973      .   S
    Zr16   O20       1.60789      .   S
    N0     O20       3.72491  1_455   S
    Zr16   O21       1.08506      .   S
    N9     O21       2.03707      .   S
    Zr16   O22       1.10544      .   S
    N9     O22       2.01902      .   S
    Zr16   O23       1.62135  1_655   S
    N5     O23       3.74391      .   S
    Zr24   O25       1.49233      .   S
    N7     O25       3.51199      .   S
    Zr24   O26       1.12318      .   S
    N12    O26       2.03559      .   S
    Zr24   O27       1.61123      .   S
    N1     O27       3.73341      .   S
    Zr24   O28       1.16265      .   S
    N10    O28       2.19326  1_554   S
    Zr24   O29       1.62489      .   S
    N2     O29       3.75081      .   S
    Zr24   O30       1.09367      .   S
    N12    O30       2.06186      .   S
    Zr31   O32       1.60108      .   S
    N7     O32       3.70503  1_545   S
    Zr31   O33       1.06438      .   S
    N15    O33       1.95664      .   S
    Zr31   O34       1.10841      .   S
    N4     O34       2.02039      .   S
    Zr31   O35       1.08549      .   S
    N4     O35       2.04075      .   S
    Zr31   O36       1.08479      .   S
    N15    O36       1.94673      .   S
    Zr31   O37       1.49457      .   S
    N1     O37       3.51213      .   S
    Zr31   O38       1.61973      .   S
    N0     O38       3.74103  1_455   S
    Zr39   O40       1.69324      .   S
    N7     O40       3.98709      .   S
    Zr39   O41       1.62725      .   S
    N6     O41       3.85466      .   S
    Zr39   O42       1.69551      .   S
    N2     O42       3.99204      .   S
    Zr39   O43       1.62887      .   S
    N1     O43       3.85983      .   S
    Zr44   O45       1.69137  1_455   S
    N3     O45       3.97983      .   S
    Zr44   O46       1.62984      .   S
    N0     O46       3.86147      .   S
    Zr44   O47       1.62719  1_455   S
    N8     O47       3.85539      .   S
    Zr44   O48       1.69250      .   S
    N5     O48       3.98147      .   S
    Zr49   O50       1.63069      .   S
    N3     O50       3.86305  1_554   S
    Zr49   O51       1.69215      .   S
    N0     O51       3.98152  1_455   S
    Zr49   O52       1.62358      .   S
    N7     O52       3.84323  1_545   S
    Zr49   O53       1.69337      .   S
    N1     O53       3.98349      .   S
    Zr54   O55       1.69167      .   S
    N8     O55       3.97890  1_655   S
    Zr54   O56       1.69323      .   S
    N6     O56       3.98282      .   S
    Zr54   O57       1.62048      .   S
    N2     O57       3.83579  1_556   S
    Zr54   O58       1.62484      .   S
    N5     O58       3.84930  1_565   S
    Zr59   O60       1.08409      .   S
    N12    O60       2.03536      .   S
    Zr59   O61       1.10447      .   S
    N12    O61       2.01732      .   S
    Zr59   O62       1.08986      .   S
    N14    O62       2.05552  1_454   S
    Zr59   O63       1.11914      .   S
    N14    O63       2.02945  1_454   S
    Zr59   O64       1.60266      .   S
    N3     O64       3.71336  1_554   S
    Zr59   O65       1.48947      .   S
    N0     O65       3.49932  1_455   S
    Zr59   O66       1.61592      .   S
    N1     O66       3.73224      .   S
    Zr67   O68       1.16224      .   S
    N15    O68       2.18688  1_565   S
    Zr67   O69       1.60280      .   S
    N6     O69       3.71331      .   S
    Zr67   O70       1.09098      .   S
    N11    O70       2.05350      .   S
    Zr67   O71       1.11699      .   S
    N11    O71       2.03038      .   S
    Zr67   O72       1.50008      .   S
    N2     O72       3.53000      .   S
    Zr67   O73       1.62391      .   S
    N7     O73       3.74953      .   S
    Zr74   O75       1.06277      .   S
    N10    O75       1.94649      .   S
    Zr74   O76       1.10612      .   S
    N13    O76       2.01856      .   S
    Zr74   O77       1.07947      .   S
    N10    O77       1.94046      .   S
    Zr74   O78       1.08453      .   S
    N13    O78       2.03771      .   S
    Zr74   O79       1.49109      .   S
    N6     O79       3.50446      .   S
    Zr74   O80       1.62264      .   S
    N8     O80       3.74644  1_655   S
    Zr74   O81       1.60238      .   S
    N2     O81       3.70721  1_556   S
    Zr82   O83       1.62333  1_455   S
    N3     O83       3.74892      .   S
    Zr82   O84       1.09297      .   S
    N13    O84       2.06260      .   S
    Zr82   O85       1.60467      .   S
    N8     O85       3.71877  1_655   S
    Zr82   O86       1.10628      .   S
    N14    O86       2.01807      .   S
    Zr82   O87       1.12402      .   S
    N13    O87       2.03491      .   S
    Zr82   O88       1.08434      .   S
    N14    O88       2.03754      .   S
    Zr82   O89       1.49018      .   S
    N5     O89       3.50132      .   S
    Zr90   O91       1.08769      .   S
    N9     O91       2.04621  1_665   S
    Zr90   O92       1.08658      .   S
    N11    O92       2.04067      .   S
    Zr90   O93       1.61743      .   S
    N6     O93       3.73520      .   S
    Zr90   O94       1.10791      .   S
    N11    O94       2.02174      .   S
    Zr90   O95       1.49784      .   S
    N8     O95       3.51981  1_655   S
    Zr90   O96       1.59988      .   S
    N5     O96       3.70578  1_565   S
    Zr90   O97       1.11217      .   S
    N9     O97       2.02448  1_665   S
