# CIF file generated by openbabel 2.4.90, see http://openbabel.sf.net
data_I
_chemical_name_common ''
_cell_length_a 10.878
_cell_length_b 18.066
_cell_length_c 18.067
_cell_angle_alpha 90.186
_cell_angle_beta 90.212
_cell_angle_gamma 90.427
_space_group_name_H-M_alt 'P 1'
_space_group_name_Hall 'P 1'
loop_
    _symmetry_equiv_pos_as_xyz
    x,y,z
loop_
    _atom_site_label
    _atom_site_type_symbol
    _atom_site_fract_x
    _atom_site_fract_y
    _atom_site_fract_z
    _atom_site_occupancy
    Zr0     Zr   0.93890   0.82940   0.40733   1.000
    Zr1     Zr   0.43647   0.17084   0.58873   1.000
    Zr2     Zr   0.68985   0.91028   0.66911   1.000
    Zr3     Zr   0.18600   0.09042   0.32664   1.000
    Zr4     Zr   0.81552   0.67239   0.90744   1.000
    Zr5     Zr   0.31418   0.32808   0.08921   1.000
    Zr6     Zr   0.06549   0.59072   0.16899   1.000
    Zr7     Zr   0.56356   0.40897   0.82851   1.000
    Zr8     Zr   0.00250   0.63332   0.36543   1.000
    Zr9     Zr   0.49865   0.36660   0.63227   1.000
    Zr10    Zr   0.75362   0.86901   0.86578   1.000
    Zr11    Zr   0.24727   0.13299   0.13089   1.000
    N12     N    0.02045   0.69246   0.66319   1.000
    O13     O    0.90037   0.78475   0.67863   1.000
    O14     O    0.03168   0.65933   0.54327   1.000
    O15     O    0.98721   0.73399   0.55440   1.000
    O16     O    0.92157   0.75838   0.75417   1.000
    O17     O    0.93704   0.70922   0.76459   1.000
    N18     N    0.48232   0.66445   0.68978   1.000
    O19     O    0.46993   0.54425   0.65758   1.000
    O20     O    0.51497   0.55587   0.73236   1.000
    O21     O    0.58305   0.75626   0.75525   1.000
    O22     O    0.56710   0.76658   0.70608   1.000
    O23     O    0.60367   0.68087   0.78192   1.000
    N24     N    0.22914   0.18922   0.83497   1.000
    O25     O    0.21676   0.15741   0.95415   1.000
    O26     O    0.26357   0.23142   0.94305   1.000
    O27     O    0.32921   0.25522   0.74372   1.000
    O28     O    0.31367   0.20628   0.73283   1.000
    O29     O    0.35074   0.28206   0.81916   1.000
    N30     N    0.73399   0.80891   0.16297   1.000
    O31     O    0.72348   0.84257   0.04329   1.000
    O32     O    0.76762   0.76783   0.05425   1.000
    O33     O    0.83347   0.74327   0.25385   1.000
    O34     O    0.81756   0.79229   0.26433   1.000
    O35     O    0.85439   0.71647   0.17834   1.000
    N36     N    0.70724   0.85304   0.50675   1.000
    O37     O    0.76510   0.84005   0.46579   1.000
    O38     O    0.79025   0.85349   0.48884   1.000
    O39     O    0.72798   0.87371   0.55428   1.000
    O40     O    0.67818   0.86814   0.55662   1.000
    N41     N    0.27036   0.83665   0.18892   1.000
    O42     O    0.18683   0.73475   0.20565   1.000
    O43     O    0.17108   0.74540   0.25476   1.000
    O44     O    0.15000   0.82082   0.28140   1.000
    O45     O    0.28032   0.95622   0.15608   1.000
    O46     O    0.23512   0.94486   0.23014   1.000
    N47     N    0.51879   0.30936   0.33486   1.000
    O48     O    0.52990   0.34179   0.45486   1.000
    O49     O    0.48449   0.26751   0.44305   1.000
    O50     O    0.41859   0.24341   0.24330   1.000
    O51     O    0.43531   0.29218   0.23288   1.000
    O52     O    0.39819   0.21651   0.31852   1.000
    N53     N    0.77135   0.16517   0.80729   1.000
    O54     O    0.78365   0.04598   0.83976   1.000
    O55     O    0.73777   0.05690   0.76535   1.000
    O56     O    0.67029   0.25600   0.74207   1.000
    O57     O    0.68652   0.26660   0.79113   1.000
    O58     O    0.64959   0.18074   0.71482   1.000
    N59     N    0.98086   0.33599   0.30679   1.000
    O60     O    0.97023   0.45590   0.33935   1.000
    O61     O    0.01591   0.44452   0.26514   1.000
    O62     O    0.07971   0.24477   0.24147   1.000
    O63     O    0.06440   0.23412   0.29041   1.000
    O64     O    0.10180   0.31967   0.21464   1.000
    N65     N    0.95306   0.99137   0.35002   1.000
    O66     O    0.01118   0.03222   0.33716   1.000
    O67     O    0.97465   0.94417   0.37064   1.000
    O68     O    0.03643   0.00942   0.35047   1.000
    O69     O    0.92486   0.94137   0.36515   1.000
    N70     N    0.54734   0.35297   0.00436   1.000
    O71     O    0.48898   0.33977   0.03819   1.000
    O72     O    0.46406   0.35299   0.01514   1.000
    O73     O    0.52641   0.37322   0.94996   1.000
    N74     N    0.20268   0.14678   0.48953   1.000
    O75     O    0.26120   0.15977   0.53047   1.000
    O76     O    0.17380   0.13191   0.43939   1.000
    O77     O    0.28612   0.14654   0.50746   1.000
    O78     O    0.22350   0.12643   0.44194   1.000
    N79     N    0.79752   0.50968   0.85196   1.000
    O80     O    0.73879   0.46827   0.83933   1.000
    O81     O    0.77719   0.55727   0.87229   1.000
    O82     O    0.71420   0.49141   0.85256   1.000
    O83     O    0.82675   0.55982   0.86619   1.000
    N84     N    0.29735   0.49071   0.14501   1.000
    O85     O    0.27661   0.44303   0.12457   1.000
    O86     O    0.21443   0.50869   0.14452   1.000
    O87     O    0.32619   0.44070   0.13071   1.000
    O88     O    0.23939   0.53194   0.15779   1.000
    N89     N    0.04798   0.64713   0.00689   1.000
    O90     O    0.98980   0.66053   0.96597   1.000
    O91     O    0.96480   0.64715   0.98892   1.000
    O92     O    0.02729   0.62673   0.05431   1.000
    O93     O    0.07716   0.63218   0.05670   1.000
    N94     N    0.45638   0.99532   0.64388   1.000
    O95     O    0.51510   0.96123   0.65716   1.000
    O96     O    0.47630   0.04968   0.62388   1.000
    O97     O    0.53964   0.98454   0.64398   1.000
loop_
    _geom_bond_atom_site_label_1
    _geom_bond_atom_site_label_2
    _geom_bond_distance
    _geom_bond_site_symmetry_2
    _ccdc_geom_bond_type
    N12    O13       2.14388  1_455   S
    Zr2    O13       3.23945      .   S
    N12    O14       2.24994      .   S
    Zr8    O14       3.25967      .   S
    N12    O15       2.13673  1_455   S
    Zr0    O15       3.21578      .   S
    N12    O16       2.30143  1_455   S
    Zr10   O16       3.38431      .   S
    N12    O17       2.06968  1_455   S
    Zr4    O17       2.97893      .   S
    N18    O19       2.24922      .   S
    Zr9    O19       3.25775      .   S
    N18    O20       2.14098      .   S
    Zr7    O20       3.22246      .   S
    N18    O21       2.30245      .   S
    Zr10   O21       3.38673      .   S
    N18    O22       2.07618      .   S
    Zr2    O22       2.98914      .   S
    N18    O23       2.13937      .   S
    Zr4    O23       3.23184      .   S
    N24    O25       2.23474      .   S
    Zr11   O25       3.24096  1_554   S
    N24    O26       2.12487      .   S
    Zr5    O26       3.20476  1_554   S
    N24    O27       2.30895      .   S
    Zr9    O27       3.39102      .   S
    N24    O28       2.08743      .   S
    Zr1    O28       3.00016      .   S
    N24    O29       2.14877      .   S
    Zr7    O29       3.24978      .   S
    N30    O31       2.25085      .   S
    Zr10   O31       3.26137  1_556   S
    N30    O32       2.13133      .   S
    Zr4    O32       3.20532  1_556   S
    N30    O33       2.30040      .   S
    Zr8    O33       3.38275  1_455   S
    N30    O34       2.06525      .   S
    Zr0    O34       2.96929      .   S
    N30    O35       2.14811      .   S
    Zr6    O35       3.24665  1_455   S
    N36    O37       1.00166      .   S
    Zr0    O37       2.17847      .   S
    N36    O38       0.96031      .   S
    Zr0    O38       2.23534      .   S
    N36    O39       0.96085      .   S
    Zr2    O39       2.21683      .   S
    N36    O40       0.99400      .   S
    Zr2    O40       2.17098      .   S
    N41    O42       2.07053      .   S
    Zr6    O42       2.98035      .   S
    N41    O43       2.30108      .   S
    Zr8    O43       3.38499      .   S
    N41    O44       2.14510      .   S
    Zr0    O44       3.24270  1_655   S
    N41    O45       2.24397      .   S
    Zr11   O45       3.24967  1_545   S
    N41    O46       2.12771      .   S
    Zr3    O46       3.19977  1_545   S
    N47    O48       2.24648      .   S
    Zr9    O48       3.25450      .   S
    N47    O49       2.13134      .   S
    Zr1    O49       3.20561      .   S
    N47    O50       2.30188      .   S
    Zr11   O50       3.38647      .   S
    N47    O51       2.07247      .   S
    Zr5    O51       2.98218      .   S
    N47    O52       2.14097      .   S
    Zr3    O52       3.23486      .   S
    N53    O54       2.23843      .   S
    Zr10   O54       3.24715  1_565   S
    N53    O55       2.12393      .   S
    Zr2    O55       3.20216  1_565   S
    N53    O56       2.30643      .   S
    Zr9    O56       3.38647      .   S
    N53    O57       2.07874      .   S
    Zr7    O57       2.98466      .   S
    N53    O58       2.14869      .   S
    Zr1    O58       3.24783      .   S
    N59    O60       2.24694      .   S
    Zr8    O60       3.25439  1_455   S
    N59    O61       2.13463  1_655   S
    Zr6    O61       3.20934      .   S
    N59    O62       2.29961  1_655   S
    Zr11   O62       3.38334      .   S
    N59    O63       2.07926  1_655   S
    Zr3    O63       2.99568      .   S
    N59    O64       2.14663  1_655   S
    Zr5    O64       3.24528      .   S
    N65    O66       0.99677  1_665   S
    Zr3    O66       2.17538      .   S
    N65    O67       0.96201      .   S
    Zr0    O67       2.21087      .   S
    N65    O68       0.96143  1_665   S
    Zr3    O68       2.22434      .   S
    N65    O69       0.99131      .   S
    Zr0    O69       2.17012      .   S
    N70    O71       0.91387      .   S
    Zr5    O71       2.12553      .   S
    N70    O72       0.92730      .   S
    Zr5    O72       2.15894      .   S
    N70    O73       1.07404  1_554   S
    Zr7    O73       2.32531      .   S
    N74    O75       1.00035      .   S
    Zr1    O75       2.18196      .   S
    N74    O76       0.99316      .   S
    Zr3    O76       2.17316      .   S
    N74    O77       0.96266      .   S
    Zr1    O77       2.23399      .   S
    N74    O78       0.96239      .   S
    Zr3    O78       2.21583      .   S
    N79    O80       1.00526      .   S
    Zr7    O80       2.18734      .   S
    N79    O81       0.96136      .   S
    Zr4    O81       2.20894      .   S
    N79    O82       0.96231      .   S
    Zr7    O82       2.24636      .   S
    N79    O83       0.99057      .   S
    Zr4    O83       2.16818      .   S
    N84    O85       0.96109      .   S
    Zr5    O85       2.21224      .   S
    N84    O86       0.96104      .   S
    Zr6    O86       2.24804      .   S
    N84    O87       0.99221      .   S
    Zr5    O87       2.16906      .   S
    N84    O88       1.00641      .   S
    Zr6    O88       2.18594      .   S
    N89    O90       1.00282  1_454   S
    Zr4    O90       2.17972      .   S
    N89    O91       0.96021  1_454   S
    Zr4    O91       2.23828      .   S
    N89    O92       0.96056      .   S
    Zr6    O92       2.21257      .   S
    N89    O93       0.99219      .   S
    Zr6    O93       2.16868      .   S
    N94    O95       0.92224      .   S
    Zr2    O95       2.12877      .   S
    N94    O96       1.06863  1_565   S
    Zr1    O96       2.32448      .   S
    N94    O97       0.92786      .   S
    Zr2    O97       2.16959      .   S
