# CIF file generated by openbabel 2.4.90, see http://openbabel.sf.net
data_I
_chemical_name_common ''
_cell_length_a 17.739
_cell_length_b 17.719
_cell_length_c 17.713
_cell_angle_alpha 96.741
_cell_angle_beta 96.796
_cell_angle_gamma 96.639
_space_group_name_H-M_alt 'P 1'
_space_group_name_Hall 'P 1'
loop_
    _symmetry_equiv_pos_as_xyz
    x,y,z
loop_
    _atom_site_label
    _atom_site_type_symbol
    _atom_site_fract_x
    _atom_site_fract_y
    _atom_site_fract_z
    _atom_site_occupancy
    Mc0     Mc   0.58836   0.88485   0.30355   1.000
    Mc1     Mc   0.30699   0.88185   0.58723   1.000
    Mc2     Mc   0.88405   0.58834   0.30484   1.000
    Mc3     Mc   0.88296   0.30580   0.58750   1.000
    Mc4     Mc   0.58883   0.30451   0.88409   1.000
    Mc5     Mc   0.30666   0.58783   0.88233   1.000
