# CIF file generated by openbabel 2.4.90, see http://openbabel.sf.net
data_I
_chemical_name_common ''
_cell_length_a 17.739
_cell_length_b 17.719
_cell_length_c 17.713
_cell_angle_alpha 96.741
_cell_angle_beta 96.796
_cell_angle_gamma 96.639
_space_group_name_H-M_alt 'P 1'
_space_group_name_Hall 'P 1'
loop_
    _symmetry_equiv_pos_as_xyz
    x,y,z
loop_
    _atom_site_label
    _atom_site_type_symbol
    _atom_site_fract_x
    _atom_site_fract_y
    _atom_site_fract_z
    _atom_site_occupancy
    Lv0     Lv   0.17145   0.88404   0.17062   1.000
    Lv1     Lv   0.35747   0.88785   0.35573   1.000
    Lv2     Lv   0.88659   0.17184   0.17123   1.000
    Lv3     Lv   0.88936   0.35731   0.35646   1.000
    Lv4     Lv   0.35789   0.35654   0.88821   1.000
    Lv5     Lv   0.17226   0.17170   0.88430   1.000
