# CIF file generated by openbabel 2.4.90, see http://openbabel.sf.net
data_I
_chemical_name_common ''
_cell_length_a 17.739
_cell_length_b 17.719
_cell_length_c 17.713
_cell_angle_alpha 96.741
_cell_angle_beta 96.796
_cell_angle_gamma 96.639
_space_group_name_H-M_alt 'P 1'
_space_group_name_Hall 'P 1'
loop_
    _symmetry_equiv_pos_as_xyz
    x,y,z
loop_
    _atom_site_label
    _atom_site_type_symbol
    _atom_site_fract_x
    _atom_site_fract_y
    _atom_site_fract_z
    _atom_site_occupancy
    H0      H    0.22538   0.38695   0.89151   1.000
    H1      H    0.14270   0.30546   0.89157   1.000
    H2      H    0.89323   0.22464   0.38655   1.000
    H3      H    0.89341   0.14207   0.30489   1.000
    H4      H    0.38675   0.89381   0.22308   1.000
    H5      H    0.30465   0.89014   0.14049   1.000
    H6      H    0.38758   0.22386   0.89340   1.000
    H7      H    0.30556   0.14136   0.89102   1.000
    H8      H    0.22487   0.89007   0.38609   1.000
    H9      H    0.14206   0.89156   0.30450   1.000
    H10     H    0.89486   0.38731   0.22393   1.000
    H11     H    0.89335   0.30534   0.14123   1.000
    H12     H    0.46202   0.46009   0.87929   1.000
    H13     H    0.06517   0.06501   0.87046   1.000
    H14     H    0.87953   0.46129   0.46019   1.000
    H15     H    0.87305   0.06475   0.06420   1.000
    H16     H    0.46208   0.87929   0.45931   1.000
    H17     H    0.06426   0.87062   0.06381   1.000
    C18     C    0.34164   0.43228   0.88666   1.000
    C19     C    0.28313   0.37261   0.88935   1.000
    C20     C    0.09741   0.18777   0.88169   1.000
    C21     C    0.15769   0.24750   0.88819   1.000
    C22     C    0.88762   0.34089   0.43211   1.000
    C23     C    0.89085   0.28246   0.37236   1.000
    C24     C    0.88395   0.09688   0.18712   1.000
    C25     C    0.89029   0.15717   0.24699   1.000
    C26     C    0.43309   0.88770   0.33904   1.000
    C27     C    0.37292   0.89038   0.28087   1.000
    C28     C    0.18704   0.88128   0.09558   1.000
    C29     C    0.24695   0.88737   0.15500   1.000
    C30     C    0.43350   0.33985   0.88760   1.000
    C31     C    0.37356   0.28167   0.89037   1.000
    C32     C    0.18792   0.09659   0.88152   1.000
    C33     C    0.24781   0.15670   0.88797   1.000
    C34     C    0.34145   0.88598   0.43150   1.000
    C35     C    0.28267   0.88841   0.37180   1.000
    C36     C    0.09665   0.88165   0.18670   1.000
    C37     C    0.15698   0.88797   0.24653   1.000
    C38     C    0.88838   0.43298   0.33997   1.000
    C39     C    0.89172   0.37314   0.28167   1.000
    C40     C    0.88400   0.18759   0.09623   1.000
    C41     C    0.89031   0.24751   0.15640   1.000
    C42     C    0.41669   0.41504   0.88531   1.000
    C43     C    0.29750   0.29646   0.89039   1.000
    C44     C    0.23410   0.23333   0.88956   1.000
    C45     C    0.11199   0.11161   0.87673   1.000
    C46     C    0.88598   0.41604   0.41508   1.000
    C47     C    0.89209   0.29702   0.29628   1.000
    C48     C    0.89170   0.23368   0.23303   1.000
    C49     C    0.87926   0.11155   0.11101   1.000
    C50     C    0.41652   0.88514   0.41425   1.000
    C51     C    0.29686   0.88985   0.29564   1.000
    C52     C    0.23334   0.88909   0.23245   1.000
    C53     C    0.11112   0.87669   0.11050   1.000
loop_
    _geom_bond_atom_site_label_1
    _geom_bond_atom_site_label_2
    _geom_bond_distance
    _geom_bond_site_symmetry_2
    _ccdc_geom_bond_type
    H17    C53       1.08734      .   S
    H15    C49       1.08768      .   S
    C28    C53       1.39783      .   S
    C28    C29       1.38958      .   S
    C40    C49       1.39740      .   S
    C40    C41       1.39807      .   S
    C53    C36       1.39815      .   S
    C49    C24       1.39736      .   S
    H5     C29       1.08151      .   S
    H11    C41       1.08634      .   S
    C29    C52       1.41827      .   S
    C41    C48       1.40522      .   S
    C36    C37       1.39893      .   S
    C24    C25       1.39877      .   S
    H4     C27       1.08733      .   S
    H10    C39       1.08748      .   S
    C52    C37       1.40444      .   S
    C52    C51       1.48896      .   S
    C48    C25       1.40431      .   S
    C48    C47       1.48853      .   S
    C37    H9        1.08688      .   S
    C25    H3        1.08672      .   S
    C27    C51       1.40359      .   S
    C27    C26       1.40221      .   S
    C39    C47       1.40360      .   S
    C39    C38       1.40219      .   S
    C51    C35       1.40383      .   S
    C47    C23       1.40370      .   S
    C26    C50       1.40249      .   S
    C38    C46       1.40222      .   S
    C35    H8        1.08752      .   S
    C35    C34       1.40260      .   S
    C23    H2        1.08741      .   S
    C23    C22       1.40221      .   S
    C50    C34       1.40242      .   S
    C50    H16       1.08952      .   S
    C46    C22       1.40221      .   S
    C46    H14       1.08944      .   S
    H13    C45       1.08730      .   S
    C45    C32       1.39761      .   S
    C45    C20       1.39786      .   S
    H12    C42       1.08946      .   S
    C32    C33       1.39900      .   S
    C20    C21       1.39900      .   S
    C42    C18       1.40234      .   S
    C42    C30       1.40257      .   S
    C18    C19       1.40256      .   S
    C30    C31       1.40236      .   S
    C33    C44       1.40457      .   S
    C33    H7        1.08671      .   S
    C21    C44       1.40468      .   S
    C21    H1        1.08685      .   S
    C19    C43       1.40375      .   S
    C19    H0        1.08743      .   S
    C44    C43       1.48919      .   S
    C31    C43       1.40378      .   S
    C31    H6        1.08743      .   S
