# CIF file generated by openbabel 2.4.90, see http://openbabel.sf.net
data_I
_chemical_name_common ''
_cell_length_a 17.739
_cell_length_b 17.719
_cell_length_c 17.713
_cell_angle_alpha 96.741
_cell_angle_beta 96.796
_cell_angle_gamma 96.639
_space_group_name_H-M_alt 'P 1'
_space_group_name_Hall 'P 1'
loop_
    _symmetry_equiv_pos_as_xyz
    x,y,z
loop_
    _atom_site_label
    _atom_site_type_symbol
    _atom_site_fract_x
    _atom_site_fract_y
    _atom_site_fract_z
    _atom_site_occupancy
    H0      H    0.21166   0.47817   0.81860   1.000
    H1      H    0.18088   0.61114   0.81811   1.000
    H2      H    0.43180   0.56535   0.94886   1.000
    H3      H    0.40205   0.69821   0.94346   1.000
    H4      H    0.81958   0.21079   0.47748   1.000
    H5      H    0.81877   0.18000   0.61047   1.000
    H6      H    0.94944   0.43095   0.56535   1.000
    H7      H    0.94377   0.40119   0.69820   1.000
    H8      H    0.47877   0.82253   0.20761   1.000
    H9      H    0.61159   0.82221   0.17702   1.000
    H10     H    0.56594   0.94998   0.42939   1.000
    H11     H    0.69867   0.94472   0.39977   1.000
    H12     H    0.47926   0.20873   0.82170   1.000
    H13     H    0.61216   0.17817   0.82107   1.000
    H14     H    0.56634   0.43017   0.94958   1.000
    H15     H    0.69909   0.40057   0.94404   1.000
    H16     H    0.21211   0.81738   0.47765   1.000
    H17     H    0.18166   0.81734   0.61071   1.000
    H18     H    0.43167   0.94864   0.56459   1.000
    H19     H    0.40230   0.94370   0.69757   1.000
    H20     H    0.82158   0.47851   0.20918   1.000
    H21     H    0.82041   0.61152   0.17864   1.000
    H22     H    0.95003   0.56600   0.43041   1.000
    H23     H    0.94407   0.69886   0.40081   1.000
    C24     C    0.28950   0.66296   0.88075   1.000
    C25     C    0.25314   0.52601   0.84761   1.000
    C26     C    0.23582   0.60041   0.84633   1.000
    C27     C    0.32393   0.51164   0.88422   1.000
    C28     C    0.37721   0.57492   0.91870   1.000
    C29     C    0.36061   0.64949   0.91663   1.000
    C30     C    0.88123   0.28863   0.66258   1.000
    C31     C    0.84838   0.25227   0.52550   1.000
    C32     C    0.84698   0.23494   0.59988   1.000
    C33     C    0.88504   0.32306   0.51138   1.000
    C34     C    0.91930   0.37638   0.57481   1.000
    C35     C    0.91708   0.35976   0.64934   1.000
    C36     C    0.66341   0.88316   0.28659   1.000
    C37     C    0.52658   0.85089   0.24954   1.000
    C38     C    0.60091   0.84973   0.23230   1.000
    C39     C    0.51228   0.88640   0.32087   1.000
    C40     C    0.57550   0.92043   0.37450   1.000
    C41     C    0.64997   0.91844   0.35790   1.000
    C42     C    0.66389   0.28754   0.88228   1.000
    C43     C    0.52707   0.25057   0.85010   1.000
    C44     C    0.60142   0.23336   0.84876   1.000
    C45     C    0.51272   0.32177   0.88580   1.000
    C46     C    0.57592   0.37535   0.91990   1.000
    C47     C    0.65041   0.35885   0.91770   1.000
    C48     C    0.28999   0.88058   0.66240   1.000
    C49     C    0.25354   0.84669   0.52546   1.000
    C50     C    0.23641   0.84569   0.59993   1.000
    C51     C    0.32404   0.88353   0.51090   1.000
    C52     C    0.37728   0.91838   0.57424   1.000
    C53     C    0.36088   0.91655   0.64889   1.000
    C54     C    0.88203   0.66341   0.28785   1.000
    C55     C    0.85000   0.52645   0.25095   1.000
    C56     C    0.84836   0.60083   0.23376   1.000
    C57     C    0.88620   0.51224   0.32200   1.000
    C58     C    0.92014   0.57554   0.37565   1.000
    C59     C    0.91773   0.65007   0.35915   1.000
loop_
    _geom_bond_atom_site_label_1
    _geom_bond_atom_site_label_2
    _geom_bond_distance
    _geom_bond_site_symmetry_2
    _ccdc_geom_bond_type
    H9     C38       1.08885      .   S
    H21    C56       1.08885      .   S
    H8     C37       1.09003      .   S
    H20    C55       1.09002      .   S
    C38    C37       1.38997      .   S
    C38    C36       1.40251      .   S
    C56    C55       1.38971      .   S
    C56    C54       1.40224      .   S
    C37    C39       1.40809      .   S
    C55    C57       1.40718      .   S
    C36    C41       1.40126      .   S
    C54    C59       1.40262      .   S
    C39    C40       1.40741      .   S
    C57    C58       1.40782      .   S
    C41    C40       1.39036      .   S
    C41    H11       1.08962      .   S
    C59    C58       1.38983      .   S
    C59    H23       1.08885      .   S
    C40    H10       1.09004      .   S
    C58    H22       1.09004      .   S
    H4     C31       1.09003      .   S
    H16    C49       1.09005      .   S
    C51    C49       1.40840      .   S
    C51    C52       1.40850      .   S
    C33    C31       1.40785      .   S
    C33    C34       1.40743      .   S
    C49    C50       1.38988      .   S
    C31    C32       1.38987      .   S
    H18    C52       1.09011      .   S
    H6     C34       1.09013      .   S
    C52    C53       1.39033      .   S
    C34    C35       1.38992      .   S
    C32    H5        1.08885      .   S
    C32    C30       1.40227      .   S
    C50    H17       1.08880      .   S
    C50    C48       1.40167      .   S
    C53    C48       1.40235      .   S
    C53    H19       1.08885      .   S
    C35    C30       1.40270      .   S
    C35    H7        1.08877      .   S
    H1     C26       1.08884      .   S
    H0     C25       1.09000      .   S
    H13    C44       1.08885      .   S
    H12    C43       1.08997      .   S
    C26    C25       1.38989      .   S
    C26    C24       1.40243      .   S
    C25    C27       1.40797      .   S
    C44    C43       1.38995      .   S
    C44    C42       1.40234      .   S
    C43    C45       1.40754      .   S
    C24    C29       1.40270      .   S
    C42    C47       1.40242      .   S
    C27    C28       1.40745      .   S
    C45    C46       1.40787      .   S
    C29    C28       1.39013      .   S
    C29    H3        1.08886      .   S
    C47    C46       1.38991      .   S
    C47    H15       1.08898      .   S
    C28    H2        1.09036      .   S
    C46    H14       1.09004      .   S
