# CIF file generated by openbabel 2.4.90, see http://openbabel.sf.net
data_I
_chemical_name_common ''
_cell_length_a 17.739
_cell_length_b 17.719
_cell_length_c 17.713
_cell_angle_alpha 96.741
_cell_angle_beta 96.796
_cell_angle_gamma 96.639
_space_group_name_H-M_alt 'P 1'
_space_group_name_Hall 'P 1'
loop_
    _symmetry_equiv_pos_as_xyz
    x,y,z
loop_
    _atom_site_label
    _atom_site_type_symbol
    _atom_site_fract_x
    _atom_site_fract_y
    _atom_site_fract_z
    _atom_site_occupancy
    H0      H    0.21166   0.47817   0.81860   1.000
    H1      H    0.18088   0.61114   0.81811   1.000
    H2      H    0.43180   0.56535   0.94886   1.000
    H3      H    0.40205   0.69821   0.94346   1.000
    H4      H    0.22538   0.38695   0.89151   1.000
    H5      H    0.14270   0.30546   0.89157   1.000
    H6      H    0.81958   0.21079   0.47748   1.000
    H7      H    0.81877   0.18000   0.61047   1.000
    H8      H    0.94944   0.43095   0.56535   1.000
    H9      H    0.94377   0.40119   0.69820   1.000
    H10     H    0.89323   0.22464   0.38655   1.000
    H11     H    0.89341   0.14207   0.30489   1.000
    H12     H    0.47877   0.82253   0.20761   1.000
    H13     H    0.61159   0.82221   0.17702   1.000
    H14     H    0.56594   0.94998   0.42939   1.000
    H15     H    0.69867   0.94472   0.39977   1.000
    H16     H    0.38675   0.89381   0.22308   1.000
    H17     H    0.30465   0.89014   0.14049   1.000
    H18     H    0.47926   0.20873   0.82170   1.000
    H19     H    0.61216   0.17817   0.82107   1.000
    H20     H    0.56634   0.43017   0.94958   1.000
    H21     H    0.69909   0.40057   0.94404   1.000
    H22     H    0.38758   0.22386   0.89340   1.000
    H23     H    0.30556   0.14136   0.89102   1.000
    H24     H    0.21211   0.81738   0.47765   1.000
    H25     H    0.18166   0.81734   0.61071   1.000
    H26     H    0.43167   0.94864   0.56459   1.000
    H27     H    0.40230   0.94370   0.69757   1.000
    H28     H    0.22487   0.89007   0.38609   1.000
    H29     H    0.14206   0.89156   0.30450   1.000
    H30     H    0.82158   0.47851   0.20918   1.000
    H31     H    0.82041   0.61152   0.17864   1.000
    H32     H    0.95003   0.56600   0.43041   1.000
    H33     H    0.94407   0.69886   0.40081   1.000
    H34     H    0.89486   0.38731   0.22393   1.000
    H35     H    0.89335   0.30534   0.14123   1.000
    H36     H    0.46202   0.46009   0.87929   1.000
    H37     H    0.06517   0.06501   0.87046   1.000
    H38     H    0.87953   0.46129   0.46019   1.000
    H39     H    0.87305   0.06475   0.06420   1.000
    H40     H    0.46208   0.87929   0.45931   1.000
    H41     H    0.06426   0.87062   0.06381   1.000
    C42     C    0.28950   0.66296   0.88075   1.000
    C43     C    0.25314   0.52601   0.84761   1.000
    C44     C    0.23582   0.60041   0.84633   1.000
    C45     C    0.32393   0.51164   0.88422   1.000
    C46     C    0.37721   0.57492   0.91870   1.000
    C47     C    0.36061   0.64949   0.91663   1.000
    C48     C    0.34164   0.43228   0.88666   1.000
    C49     C    0.28313   0.37261   0.88935   1.000
    C50     C    0.09741   0.18777   0.88169   1.000
    C51     C    0.15769   0.24750   0.88819   1.000
    C52     C    0.88123   0.28863   0.66258   1.000
    C53     C    0.84838   0.25227   0.52550   1.000
    C54     C    0.84698   0.23494   0.59988   1.000
    C55     C    0.88504   0.32306   0.51138   1.000
    C56     C    0.91930   0.37638   0.57481   1.000
    C57     C    0.91708   0.35976   0.64934   1.000
    C58     C    0.88762   0.34089   0.43211   1.000
    C59     C    0.89085   0.28246   0.37236   1.000
    C60     C    0.88395   0.09688   0.18712   1.000
    C61     C    0.89029   0.15717   0.24699   1.000
    C62     C    0.66341   0.88316   0.28659   1.000
    C63     C    0.52658   0.85089   0.24954   1.000
    C64     C    0.60091   0.84973   0.23230   1.000
    C65     C    0.51228   0.88640   0.32087   1.000
    C66     C    0.57550   0.92043   0.37450   1.000
    C67     C    0.64997   0.91844   0.35790   1.000
    C68     C    0.43309   0.88770   0.33904   1.000
    C69     C    0.37292   0.89038   0.28087   1.000
    C70     C    0.18704   0.88128   0.09558   1.000
    C71     C    0.24695   0.88737   0.15500   1.000
    C72     C    0.66389   0.28754   0.88228   1.000
    C73     C    0.52707   0.25057   0.85010   1.000
    C74     C    0.60142   0.23336   0.84876   1.000
    C75     C    0.51272   0.32177   0.88580   1.000
    C76     C    0.57592   0.37535   0.91990   1.000
    C77     C    0.65041   0.35885   0.91770   1.000
    C78     C    0.43350   0.33985   0.88760   1.000
    C79     C    0.37356   0.28167   0.89037   1.000
    C80     C    0.18792   0.09659   0.88152   1.000
    C81     C    0.24781   0.15670   0.88797   1.000
    C82     C    0.28999   0.88058   0.66240   1.000
    C83     C    0.25354   0.84669   0.52546   1.000
    C84     C    0.23641   0.84569   0.59993   1.000
    C85     C    0.32404   0.88353   0.51090   1.000
    C86     C    0.37728   0.91838   0.57424   1.000
    C87     C    0.36088   0.91655   0.64889   1.000
    C88     C    0.34145   0.88598   0.43150   1.000
    C89     C    0.28267   0.88841   0.37180   1.000
    C90     C    0.09665   0.88165   0.18670   1.000
    C91     C    0.15698   0.88797   0.24653   1.000
    C92     C    0.88203   0.66341   0.28785   1.000
    C93     C    0.85000   0.52645   0.25095   1.000
    C94     C    0.84836   0.60083   0.23376   1.000
    C95     C    0.88620   0.51224   0.32200   1.000
    C96     C    0.92014   0.57554   0.37565   1.000
    C97     C    0.91773   0.65007   0.35915   1.000
    C98     C    0.88838   0.43298   0.33997   1.000
    C99     C    0.89172   0.37314   0.28167   1.000
    C100    C    0.88400   0.18759   0.09623   1.000
    C101    C    0.89031   0.24751   0.15640   1.000
    C102    C    0.41669   0.41504   0.88531   1.000
    C103    C    0.29750   0.29646   0.89039   1.000
    C104    C    0.23410   0.23333   0.88956   1.000
    C105    C    0.11199   0.11161   0.87673   1.000
    C106    C    0.88598   0.41604   0.41508   1.000
    C107    C    0.89209   0.29702   0.29628   1.000
    C108    C    0.89170   0.23368   0.23303   1.000
    C109    C    0.87926   0.11155   0.11101   1.000
    C110    C    0.41652   0.88514   0.41425   1.000
    C111    C    0.29686   0.88985   0.29564   1.000
    C112    C    0.23334   0.88909   0.23245   1.000
    C113    C    0.11112   0.87669   0.11050   1.000
loop_
    _geom_bond_atom_site_label_1
    _geom_bond_atom_site_label_2
    _geom_bond_distance
    _geom_bond_site_symmetry_2
    _ccdc_geom_bond_type
    H41    C113      1.08734      .   S
    H39    C109      1.08768      .   S
    C70    C113      1.39783      .   S
    C70    C71       1.38958      .   S
    C100   C109      1.39740      .   S
    C100   C101      1.39807      .   S
    C113   C90       1.39815      .   S
    C109   C60       1.39736      .   S
    H17    C71       1.08151      .   S
    H35    C101      1.08634      .   S
    C71    C112      1.41827      .   S
    C101   C108      1.40522      .   S
    H13    C64       1.08885      .   S
    H31    C94       1.08885      .   S
    C90    C91       1.39893      .   S
    C60    C61       1.39877      .   S
    H12    C63       1.09003      .   S
    H30    C93       1.09002      .   S
    H16    C69       1.08733      .   S
    H34    C99       1.08748      .   S
    C64    C63       1.38997      .   S
    C64    C62       1.40251      .   S
    C112   C91       1.40444      .   S
    C112   C111      1.48896      .   S
    C108   C61       1.40431      .   S
    C108   C107      1.48853      .   S
    C94    C93       1.38971      .   S
    C94    C92       1.40224      .   S
    C91    H29       1.08688      .   S
    C61    H11       1.08672      .   S
    C63    C65       1.40809      .   S
    C93    C95       1.40718      .   S
    C69    C111      1.40359      .   S
    C69    C68       1.40221      .   S
    C99    C107      1.40360      .   S
    C99    C98       1.40219      .   S
    C62    C67       1.40126      .   S
    C92    C97       1.40262      .   S
    C111   C89       1.40383      .   S
    C107   C59       1.40370      .   S
    C65    C68       1.48002      .   S
    C65    C66       1.40741      .   S
    C95    C98       1.47974      .   S
    C95    C96       1.40782      .   S
    C68    C110      1.40249      .   S
    C98    C106      1.40222      .   S
    C67    C66       1.39036      .   S
    C67    H15       1.08962      .   S
    C97    C96       1.38983      .   S
    C97    H33       1.08885      .   S
    C89    H28       1.08752      .   S
    C89    C88       1.40260      .   S
    C59    H10       1.08741      .   S
    C59    C58       1.40221      .   S
    C66    H14       1.09004      .   S
    C96    H32       1.09004      .   S
    C110   C88       1.40242      .   S
    C110   H40       1.08952      .   S
    C106   C58       1.40221      .   S
    C106   H38       1.08944      .   S
    C88    C85       1.47963      .   S
    C58    C55       1.47969      .   S
    H6     C53       1.09003      .   S
    H24    C83       1.09005      .   S
    C85    C83       1.40840      .   S
    C85    C86       1.40850      .   S
    C55    C53       1.40785      .   S
    C55    C56       1.40743      .   S
    C83    C84       1.38988      .   S
    C53    C54       1.38987      .   S
    H26    C86       1.09011      .   S
    H8     C56       1.09013      .   S
    C86    C87       1.39033      .   S
    C56    C57       1.38992      .   S
    C54    H7        1.08885      .   S
    C54    C52       1.40227      .   S
    C84    H25       1.08880      .   S
    C84    C82       1.40167      .   S
    C87    C82       1.40235      .   S
    C87    H27       1.08885      .   S
    C57    C52       1.40270      .   S
    C57    H9        1.08877      .   S
    H1     C44       1.08884      .   S
    H0     C43       1.09000      .   S
    H19    C74       1.08885      .   S
    H18    C73       1.08997      .   S
    C44    C43       1.38989      .   S
    C44    C42       1.40243      .   S
    C43    C45       1.40797      .   S
    C74    C73       1.38995      .   S
    C74    C72       1.40234      .   S
    C73    C75       1.40754      .   S
    H37    C105      1.08730      .   S
    C105   C80       1.39761      .   S
    C105   C50       1.39786      .   S
    H36    C102      1.08946      .   S
    C42    C47       1.40270      .   S
    C80    C81       1.39900      .   S
    C50    C51       1.39900      .   S
    C72    C77       1.40242      .   S
    C45    C48       1.48019      .   S
    C45    C46       1.40745      .   S
    C102   C48       1.40234      .   S
    C102   C78       1.40257      .   S
    C75    C78       1.48011      .   S
    C75    C76       1.40787      .   S
    C48    C49       1.40256      .   S
    C78    C79       1.40236      .   S
    C81    C104      1.40457      .   S
    C81    H23       1.08671      .   S
    C51    C104      1.40468      .   S
    C51    H5        1.08685      .   S
    C49    C103      1.40375      .   S
    C49    H4        1.08743      .   S
    C104   C103      1.48919      .   S
    C79    C103      1.40378      .   S
    C79    H22       1.08743      .   S
    C47    C46       1.39013      .   S
    C47    H3        1.08886      .   S
    C77    C76       1.38991      .   S
    C77    H21       1.08898      .   S
    C46    H2        1.09036      .   S
    C76    H20       1.09004      .   S
