# CIF file generated by openbabel 2.4.90, see http://openbabel.sf.net
data_I
_chemical_name_common ''
_cell_length_a 17.739
_cell_length_b 17.719
_cell_length_c 17.713
_cell_angle_alpha 96.741
_cell_angle_beta 96.796
_cell_angle_gamma 96.639
_space_group_name_H-M_alt 'P 1'
_space_group_name_Hall 'P 1'
loop_
    _symmetry_equiv_pos_as_xyz
    x,y,z
loop_
    _atom_site_label
    _atom_site_type_symbol
    _atom_site_fract_x
    _atom_site_fract_y
    _atom_site_fract_z
    _atom_site_occupancy
    C0      C    0.27109   0.74275   0.87957   1.000
    C1      C    0.01713   0.20612   0.87995   1.000
    C2      C    0.88005   0.27020   0.74234   1.000
    C3      C    0.88193   0.01655   0.20540   1.000
    C4      C    0.74317   0.88120   0.26873   1.000
    C5      C    0.20524   0.87995   0.01521   1.000
    C6      C    0.74366   0.26963   0.88042   1.000
    C7      C    0.20604   0.01615   0.87987   1.000
    C8      C    0.27160   0.87983   0.74231   1.000
    C9      C    0.01645   0.88010   0.20510   1.000
    C10     C    0.88024   0.74315   0.26969   1.000
    C11     C    0.88218   0.20570   0.01584   1.000
