# CIF file generated by openbabel 2.4.90, see http://openbabel.sf.net
data_I
_chemical_name_common ''
_cell_length_a 17.739
_cell_length_b 17.719
_cell_length_c 17.713
_cell_angle_alpha 96.741
_cell_angle_beta 96.796
_cell_angle_gamma 96.639
_space_group_name_H-M_alt 'P 1'
_space_group_name_Hall 'P 1'
loop_
    _symmetry_equiv_pos_as_xyz
    x,y,z
loop_
    _atom_site_label
    _atom_site_type_symbol
    _atom_site_fract_x
    _atom_site_fract_y
    _atom_site_fract_z
    _atom_site_occupancy
    C0      C    0.30527   0.90409   0.90378   1.000
    C1      C    0.90483   0.30495   0.90380   1.000
    C2      C    0.90454   0.90442   0.30435   1.000
    C3      C    0.85582   0.17115   0.85430   1.000
    C4      C    0.85520   0.85496   0.17040   1.000
    C5      C    0.17183   0.85466   0.85380   1.000
    C6      C    0.21166   0.47817   0.81860   1.000
    C7      C    0.18088   0.61114   0.81811   1.000
    C8      C    0.43180   0.56535   0.94886   1.000
    C9      C    0.40205   0.69821   0.94346   1.000
    C10     C    0.22538   0.38695   0.89151   1.000
    C11     C    0.14270   0.30546   0.89157   1.000
    C12     C    0.81958   0.21079   0.47748   1.000
    C13     C    0.81877   0.18000   0.61047   1.000
    C14     C    0.94944   0.43095   0.56535   1.000
    C15     C    0.94377   0.40119   0.69820   1.000
    C16     C    0.89323   0.22464   0.38655   1.000
    C17     C    0.89341   0.14207   0.30489   1.000
    C18     C    0.47877   0.82253   0.20761   1.000
    C19     C    0.61159   0.82221   0.17702   1.000
    C20     C    0.56594   0.94998   0.42939   1.000
    C21     C    0.69867   0.94472   0.39977   1.000
    C22     C    0.38675   0.89381   0.22308   1.000
    C23     C    0.30465   0.89014   0.14049   1.000
    C24     C    0.47926   0.20873   0.82170   1.000
    C25     C    0.61216   0.17817   0.82107   1.000
    C26     C    0.56634   0.43017   0.94958   1.000
    C27     C    0.69909   0.40057   0.94404   1.000
    C28     C    0.38758   0.22386   0.89340   1.000
    C29     C    0.30556   0.14136   0.89102   1.000
    C30     C    0.21211   0.81738   0.47765   1.000
    C31     C    0.18166   0.81734   0.61071   1.000
    C32     C    0.43167   0.94864   0.56459   1.000
    C33     C    0.40230   0.94370   0.69757   1.000
    C34     C    0.22487   0.89007   0.38609   1.000
    C35     C    0.14206   0.89156   0.30450   1.000
    C36     C    0.82158   0.47851   0.20918   1.000
    C37     C    0.82041   0.61152   0.17864   1.000
    C38     C    0.95003   0.56600   0.43041   1.000
    C39     C    0.94407   0.69886   0.40081   1.000
    C40     C    0.89486   0.38731   0.22393   1.000
    C41     C    0.89335   0.30534   0.14123   1.000
    C42     C    0.46202   0.46009   0.87929   1.000
    C43     C    0.06517   0.06501   0.87046   1.000
    C44     C    0.87953   0.46129   0.46019   1.000
    C45     C    0.87305   0.06475   0.06420   1.000
    C46     C    0.46208   0.87929   0.45931   1.000
    C47     C    0.06426   0.87062   0.06381   1.000
    C48     C    0.28950   0.66296   0.88075   1.000
    C49     C    0.25314   0.52601   0.84761   1.000
    C50     C    0.23582   0.60041   0.84633   1.000
    C51     C    0.32393   0.51164   0.88422   1.000
    C52     C    0.37721   0.57492   0.91870   1.000
    C53     C    0.36061   0.64949   0.91663   1.000
    C54     C    0.27109   0.74275   0.87957   1.000
    C55     C    0.01713   0.20612   0.87995   1.000
    C56     C    0.34164   0.43228   0.88666   1.000
    C57     C    0.28313   0.37261   0.88935   1.000
    C58     C    0.09741   0.18777   0.88169   1.000
    C59     C    0.15769   0.24750   0.88819   1.000
    C60     C    0.88123   0.28863   0.66258   1.000
    C61     C    0.84838   0.25227   0.52550   1.000
    C62     C    0.84698   0.23494   0.59988   1.000
    C63     C    0.88504   0.32306   0.51138   1.000
    C64     C    0.91930   0.37638   0.57481   1.000
    C65     C    0.91708   0.35976   0.64934   1.000
    C66     C    0.88005   0.27020   0.74234   1.000
    C67     C    0.88193   0.01655   0.20540   1.000
    C68     C    0.88762   0.34089   0.43211   1.000
    C69     C    0.89085   0.28246   0.37236   1.000
    C70     C    0.88395   0.09688   0.18712   1.000
    C71     C    0.89029   0.15717   0.24699   1.000
    C72     C    0.66341   0.88316   0.28659   1.000
    C73     C    0.52658   0.85089   0.24954   1.000
    C74     C    0.60091   0.84973   0.23230   1.000
    C75     C    0.51228   0.88640   0.32087   1.000
    C76     C    0.57550   0.92043   0.37450   1.000
    C77     C    0.64997   0.91844   0.35790   1.000
    C78     C    0.74317   0.88120   0.26873   1.000
    C79     C    0.20524   0.87995   0.01521   1.000
    C80     C    0.43309   0.88770   0.33904   1.000
    C81     C    0.37292   0.89038   0.28087   1.000
    C82     C    0.18704   0.88128   0.09558   1.000
    C83     C    0.24695   0.88737   0.15500   1.000
    C84     C    0.66389   0.28754   0.88228   1.000
    C85     C    0.52707   0.25057   0.85010   1.000
    C86     C    0.60142   0.23336   0.84876   1.000
    C87     C    0.51272   0.32177   0.88580   1.000
    C88     C    0.57592   0.37535   0.91990   1.000
    C89     C    0.65041   0.35885   0.91770   1.000
    C90     C    0.74366   0.26963   0.88042   1.000
    C91     C    0.20604   0.01615   0.87987   1.000
    C92     C    0.43350   0.33985   0.88760   1.000
    C93     C    0.37356   0.28167   0.89037   1.000
    C94     C    0.18792   0.09659   0.88152   1.000
    C95     C    0.24781   0.15670   0.88797   1.000
    C96     C    0.28999   0.88058   0.66240   1.000
    C97     C    0.25354   0.84669   0.52546   1.000
    C98     C    0.23641   0.84569   0.59993   1.000
    C99     C    0.32404   0.88353   0.51090   1.000
    C100    C    0.37728   0.91838   0.57424   1.000
    C101    C    0.36088   0.91655   0.64889   1.000
    C102    C    0.27160   0.87983   0.74231   1.000
    C103    C    0.01645   0.88010   0.20510   1.000
    C104    C    0.34145   0.88598   0.43150   1.000
    C105    C    0.28267   0.88841   0.37180   1.000
    C106    C    0.09665   0.88165   0.18670   1.000
    C107    C    0.15698   0.88797   0.24653   1.000
    C108    C    0.88203   0.66341   0.28785   1.000
    C109    C    0.85000   0.52645   0.25095   1.000
    C110    C    0.84836   0.60083   0.23376   1.000
    C111    C    0.88620   0.51224   0.32200   1.000
    C112    C    0.92014   0.57554   0.37565   1.000
    C113    C    0.91773   0.65007   0.35915   1.000
    C114    C    0.88024   0.74315   0.26969   1.000
    C115    C    0.88218   0.20570   0.01584   1.000
    C116    C    0.88838   0.43298   0.33997   1.000
    C117    C    0.89172   0.37314   0.28167   1.000
    C118    C    0.88400   0.18759   0.09623   1.000
    C119    C    0.89031   0.24751   0.15640   1.000
    C120    C    0.41669   0.41504   0.88531   1.000
    C121    C    0.29750   0.29646   0.89039   1.000
    C122    C    0.23410   0.23333   0.88956   1.000
    C123    C    0.11199   0.11161   0.87673   1.000
    C124    C    0.88598   0.41604   0.41508   1.000
    C125    C    0.89209   0.29702   0.29628   1.000
    C126    C    0.89170   0.23368   0.23303   1.000
    C127    C    0.87926   0.11155   0.11101   1.000
    C128    C    0.41652   0.88514   0.41425   1.000
    C129    C    0.29686   0.88985   0.29564   1.000
    C130    C    0.23334   0.88909   0.23245   1.000
    C131    C    0.11112   0.87669   0.11050   1.000
    C132    C    0.32597   0.79716   0.90270   1.000
    C133    C    0.96333   0.15095   0.85668   1.000
    C134    C    0.00893   0.27570   0.90222   1.000
    C135    C    0.20185   0.75087   0.85570   1.000
    C136    C    0.90323   0.32514   0.79683   1.000
    C137    C    0.85947   0.96266   0.15003   1.000
    C138    C    0.90306   0.00843   0.27528   1.000
    C139    C    0.85637   0.20090   0.75036   1.000
    C140    C    0.79736   0.90338   0.32416   1.000
    C141    C    0.15016   0.85734   0.96106   1.000
    C142    C    0.27488   0.90174   0.00730   1.000
    C143    C    0.75145   0.85762   0.19941   1.000
    C144    C    0.79776   0.32494   0.90300   1.000
    C145    C    0.15097   0.96229   0.85654   1.000
    C146    C    0.27558   0.00794   0.90215   1.000
    C147    C    0.75210   0.20043   0.85652   1.000
    C148    C    0.32637   0.90321   0.79690   1.000
    C149    C    0.96252   0.85665   0.15000   1.000
    C150    C    0.00847   0.90268   0.27469   1.000
    C151    C    0.20237   0.85607   0.75027   1.000
    C152    C    0.90342   0.79752   0.32475   1.000
    C153    C    0.85962   0.15036   0.96193   1.000
    C154    C    0.90342   0.27546   0.00767   1.000
    C155    C    0.85600   0.75124   0.20046   1.000
    O156    O    0.24006   0.89084   0.01126   1.000
    O157    O    0.29008   0.90292   0.95554   1.000
    O158    O    0.89280   0.24058   0.01175   1.000
    O159    O    0.90413   0.29021   0.95574   1.000
    O160    O    0.19614   0.88061   0.05539   1.000
    O161    O    0.17770   0.86864   0.98813   1.000
    O162    O    0.88309   0.19665   0.05604   1.000
    O163    O    0.87090   0.17803   0.98889   1.000
    O164    O    0.08769   0.87366   0.08716   1.000
    O165    O    0.87615   0.08815   0.08760   1.000
    O166    O    0.14908   0.87899   0.10304   1.000
    O167    O    0.21699   0.88433   0.12529   1.000
    O168    O    0.88163   0.14957   0.10362   1.000
    O169    O    0.88716   0.21755   0.12632   1.000
    O170    O    0.10388   0.87917   0.14860   1.000
    O171    O    0.88160   0.10421   0.14907   1.000
    O172    O    0.27580   0.88876   0.14775   1.000
    O173    O    0.89183   0.27643   0.14882   1.000
    O174    O    0.90886   0.85581   0.16020   1.000
    O175    O    0.98949   0.86837   0.17755   1.000
    O176    O    0.85733   0.90881   0.16021   1.000
    O177    O    0.87070   0.98961   0.17772   1.000
    O178    O    0.24014   0.88823   0.19373   1.000
    O179    O    0.89101   0.24060   0.19471   1.000
    O180    O    0.80332   0.85629   0.18490   1.000
    O181    O    0.85560   0.80310   0.18543   1.000
    O182    O    0.60625   0.83597   0.20466   1.000
    O183    O    0.83438   0.60617   0.20620   1.000
    O184    O    0.05655   0.88088   0.19590   1.000
    O185    O    0.12681   0.88481   0.21662   1.000
    O186    O    0.88294   0.05672   0.19626   1.000
    O187    O    0.88712   0.12703   0.21706   1.000
    O188    O    0.74731   0.86941   0.23407   1.000
    O189    O    0.86812   0.74719   0.23508   1.000
    O190    O    0.01246   0.89139   0.23990   1.000
    O191    O    0.89250   0.01249   0.24034   1.000
    O192    O    0.50268   0.83671   0.22858   1.000
    O193    O    0.83579   0.50248   0.23006   1.000
    O194    O    0.37983   0.89209   0.25198   1.000
    O195    O    0.89329   0.38022   0.25280   1.000
    O196    O    0.56375   0.85031   0.24092   1.000
    O197    O    0.63216   0.86644   0.25945   1.000
    O198    O    0.19516   0.88853   0.23949   1.000
    O199    O    0.26510   0.88947   0.26405   1.000
    O200    O    0.89099   0.19543   0.24001   1.000
    O201    O    0.89189   0.26535   0.26466   1.000
    O202    O    0.84918   0.56364   0.24236   1.000
    O203    O    0.86519   0.63212   0.26081   1.000
    O204    O    0.14952   0.88976   0.27552   1.000
    O205    O    0.89185   0.14962   0.27594   1.000
    O206    O    0.51943   0.86864   0.28520   1.000
    O207    O    0.86810   0.51935   0.28648   1.000
    O208    O    0.70329   0.88218   0.27766   1.000
    O209    O    0.77027   0.89229   0.29645   1.000
    O210    O    0.88113   0.70328   0.27877   1.000
    O211    O    0.89183   0.77033   0.29722   1.000
    O212    O    0.95650   0.90355   0.28952   1.000
    O213    O    0.90380   0.95643   0.28982   1.000
    O214    O    0.33489   0.89012   0.28826   1.000
    O215    O    0.40300   0.88904   0.30995   1.000
    O216    O    0.89191   0.33508   0.28898   1.000
    O217    O    0.89005   0.40306   0.31082   1.000
    O218    O    0.65669   0.90080   0.32225   1.000
    O219    O    0.89988   0.65674   0.32350   1.000
    O220    O    0.28976   0.88913   0.33372   1.000
    O221    O    0.89147   0.28974   0.33432   1.000
    O222    O    0.85095   0.90390   0.31426   1.000
    O223    O    0.90398   0.85097   0.31455   1.000
    O224    O    0.47269   0.88705   0.32995   1.000
    O225    O    0.54389   0.90341   0.34769   1.000
    O226    O    0.88729   0.47261   0.33099   1.000
    O227    O    0.90317   0.54389   0.34883   1.000
    O228    O    0.42480   0.88642   0.37665   1.000
    O229    O    0.88718   0.42451   0.37753   1.000
    O230    O    0.61274   0.91944   0.36620   1.000
    O231    O    0.67432   0.93158   0.37884   1.000
    O232    O    0.91893   0.61281   0.36740   1.000
    O233    O    0.93090   0.67446   0.37998   1.000
    O234    O    0.25377   0.88924   0.37895   1.000
    O235    O    0.31206   0.88720   0.40165   1.000
    O236    O    0.89204   0.25355   0.37946   1.000
    O237    O    0.88924   0.31167   0.40224   1.000
    O238    O    0.57072   0.93521   0.40195   1.000
    O239    O    0.93509   0.57077   0.40303   1.000
    O240    O    0.37898   0.88556   0.42288   1.000
    O241    O    0.43930   0.88222   0.43678   1.000
    O242    O    0.88680   0.37846   0.42360   1.000
    O243    O    0.88275   0.43867   0.43763   1.000
    O244    O    0.33274   0.88476   0.47120   1.000
    O245    O    0.88633   0.33197   0.47175   1.000
    O246    O    0.83398   0.23153   0.50149   1.000
    O247    O    0.23282   0.83203   0.50156   1.000
    O248    O    0.28879   0.86511   0.51818   1.000
    O249    O    0.35066   0.90096   0.54257   1.000
    O250    O    0.86671   0.28766   0.51844   1.000
    O251    O    0.90217   0.34972   0.54309   1.000
    O252    O    0.24497   0.84619   0.56269   1.000
    O253    O    0.84768   0.24360   0.56269   1.000
    O254    O    0.40447   0.93351   0.56942   1.000
    O255    O    0.93437   0.40366   0.57008   1.000
    O256    O    0.36908   0.91746   0.61157   1.000
    O257    O    0.91819   0.36807   0.61208   1.000
    O258    O    0.83287   0.20747   0.60518   1.000
    O259    O    0.86410   0.26178   0.63123   1.000
    O260    O    0.20903   0.83152   0.60532   1.000
    O261    O    0.26320   0.86313   0.63116   1.000
    O262    O    0.32544   0.89856   0.65565   1.000
    O263    O    0.38159   0.93012   0.67323   1.000
    O264    O    0.89916   0.32420   0.65596   1.000
    O265    O    0.93043   0.38048   0.67377   1.000
    O266    O    0.28080   0.88020   0.70236   1.000
    O267    O    0.88064   0.27942   0.70246   1.000
    O268    O    0.23698   0.86795   0.74629   1.000
    O269    O    0.29898   0.89152   0.76961   1.000
    O270    O    0.86821   0.23555   0.74635   1.000
    O271    O    0.89164   0.29767   0.76959   1.000
    O272    O    0.18710   0.85537   0.80204   1.000
    O273    O    0.85609   0.18602   0.80233   1.000
    O274    O    0.90403   0.31505   0.85032   1.000
    O275    O    0.31582   0.90365   0.85034   1.000
    O276    O    0.20835   0.60578   0.83222   1.000
    O277    O    0.23240   0.50209   0.83311   1.000
    O278    O    0.60679   0.20576   0.83491   1.000
    O279    O    0.50317   0.22965   0.83590   1.000
    O280    O    0.24448   0.56321   0.84697   1.000
    O281    O    0.26266   0.63169   0.86354   1.000
    O282    O    0.28853   0.51883   0.86592   1.000
    O283    O    0.56424   0.24196   0.84943   1.000
    O284    O    0.63265   0.26045   0.86552   1.000
    O285    O    0.51989   0.28617   0.86795   1.000
    O286    O    0.18684   0.80276   0.85475   1.000
    O287    O    0.16140   0.90848   0.85517   1.000
    O288    O    0.16099   0.85600   0.90743   1.000
    O289    O    0.80396   0.18579   0.85541   1.000
    O290    O    0.90957   0.16105   0.85549   1.000
    O291    O    0.85772   0.16075   0.90812   1.000
    O292    O    0.23647   0.74681   0.86763   1.000
    O293    O    0.74788   0.23503   0.86847   1.000
    O294    O    0.17850   0.98922   0.86821   1.000
    O295    O    0.99023   0.17854   0.86832   1.000
    O296    O    0.08858   0.08831   0.87360   1.000
    O297    O    0.14996   0.10410   0.87913   1.000
    O298    O    0.10470   0.14969   0.87921   1.000
    O299    O    0.43936   0.43756   0.88230   1.000
    O300    O    0.28030   0.70286   0.88016   1.000
    O301    O    0.29853   0.76995   0.89114   1.000
    O302    O    0.19698   0.05637   0.88070   1.000
    O303    O    0.24081   0.01204   0.89101   1.000
    O304    O    0.05727   0.19695   0.88082   1.000
    O305    O    0.01303   0.24091   0.89109   1.000
    O306    O    0.70378   0.27859   0.88135   1.000
    O307    O    0.77071   0.29729   0.89171   1.000
    O308    O    0.32506   0.65623   0.89869   1.000
    O309    O    0.21787   0.12665   0.88475   1.000
    O310    O    0.12755   0.21764   0.88494   1.000
    O311    O    0.65715   0.32320   0.89999   1.000
    O312    O    0.33278   0.47196   0.88544   1.000
    O313    O    0.35057   0.54328   0.90146   1.000
    O314    O    0.37916   0.42366   0.88599   1.000
    O315    O    0.42510   0.37745   0.88646   1.000
    O316    O    0.47311   0.33081   0.88670   1.000
    O317    O    0.54432   0.34856   0.90285   1.000
    O318    O    0.31238   0.40245   0.88800   1.000
    O319    O    0.40353   0.31076   0.88899   1.000
    O320    O    0.24095   0.19502   0.88877   1.000
    O321    O    0.27669   0.14903   0.88950   1.000
    O322    O    0.19589   0.24042   0.88888   1.000
    O323    O    0.15019   0.27648   0.88988   1.000
    O324    O    0.29031   0.33454   0.88987   1.000
    O325    O    0.25425   0.37978   0.89043   1.000
    O326    O    0.26580   0.26490   0.88997   1.000
    O327    O    0.33553   0.28906   0.89038   1.000
    O328    O    0.38057   0.25277   0.89189   1.000
    O329    O    0.29043   0.95601   0.90297   1.000
    O330    O    0.95688   0.29033   0.90301   1.000
    O331    O    0.31562   0.85063   0.90324   1.000
    O332    O    0.85129   0.31495   0.90340   1.000
    O333    O    0.36891   0.61221   0.91766   1.000
    O334    O    0.38133   0.67385   0.93005   1.000
    O335    O    0.61316   0.36710   0.91880   1.000
    O336    O    0.67475   0.37971   0.93087   1.000
    O337    O    0.40450   0.57013   0.93378   1.000
    O338    O    0.57113   0.40276   0.93474   1.000
    O339    O    0.23855   0.87938   0.87879   1.000
    O340    O    0.88033   0.23805   0.87905   1.000
    O341    O    0.87987   0.87969   0.23737   1.000
loop_
    _geom_bond_atom_site_label_1
    _geom_bond_atom_site_label_2
    _geom_bond_distance
    _geom_bond_site_symmetry_2
    _ccdc_geom_bond_type
    C142   O156      0.64000      .   S
    C79    O156      0.64000      .   S
    C142   O157      0.98759  1_554   S
    C0     O157      0.98759      .   S
    C154   O158      0.63992      .   S
    C115   O158      0.63992      .   S
    C154   O159      0.98643  1_554   S
    C1     O159      0.98643      .   S
    C79    O160      0.74734      .   S
    C82    O160      0.74734      .   S
    C79    O161      0.63887  1_554   S
    C141   O161      0.63887      .   S
    C115   O162      0.74676      .   S
    C118   O162      0.74676      .   S
    C115   O163      0.63887  1_554   S
    C153   O163      0.63887      .   S
    C47    O164      0.54367      .   S
    C131   O164      0.54367      .   S
    C45    O165      0.54384      .   S
    C127   O165      0.54384      .   S
    C82    O166      0.69892      .   S
    C131   O166      0.69892      .   S
    C82    O167      0.69479      .   S
    C83    O167      0.69479      .   S
    C118   O168      0.69870      .   S
    C127   O168      0.69870      .   S
    C118   O169      0.69903      .   S
    C119   O169      0.69903      .   S
    C131   O170      0.69907      .   S
    C106   O170      0.69907      .   S
    C127   O171      0.69868      .   S
    C70    O171      0.69868      .   S
    C23    O172      0.54076      .   S
    C83    O172      0.54076      .   S
    C41    O173      0.54317      .   S
    C119   O173      0.54317      .   S
    C149   O174      0.98842      .   S
    C4     O174      0.98842      .   S
    C149   O175      0.63883      .   S
    C103   O175      0.63883  1_455   S
    C137   O176      0.98897      .   S
    C4     O176      0.98897      .   S
    C137   O177      0.63878      .   S
    C67    O177      0.63878  1_545   S
    C83    O178      0.70914      .   S
    C130   O178      0.70914      .   S
    C119   O179      0.70261      .   S
    C126   O179      0.70261      .   S
    C4     O180      0.98639      .   S
    C143   O180      0.98639      .   S
    C4     O181      0.98684      .   S
    C155   O181      0.98684      .   S
    C19    O182      0.54443      .   S
    C74    O182      0.54443      .   S
    C37    O183      0.54443      .   S
    C110   O183      0.54443      .   S
    C106   O184      0.74723      .   S
    C103   O184      0.74723      .   S
    C106   O185      0.69947      .   S
    C107   O185      0.69947      .   S
    C70    O186      0.74685      .   S
    C67    O186      0.74685      .   S
    C70    O187      0.69938      .   S
    C71    O187      0.69938      .   S
    C143   O188      0.64035      .   S
    C78    O188      0.64035      .   S
    C155   O189      0.64031      .   S
    C114   O189      0.64031      .   S
    C103   O190      0.63997      .   S
    C150   O190      0.63997      .   S
    C67    O191      0.63989      .   S
    C138   O191      0.63989      .   S
    C18    O192      0.54502      .   S
    C73    O192      0.54502      .   S
    C36    O193      0.54501      .   S
    C109   O193      0.54501      .   S
    C22    O194      0.54367      .   S
    C81    O194      0.54367      .   S
    C40    O195      0.54374      .   S
    C117   O195      0.54374      .   S
    C74    O196      0.69499      .   S
    C73    O196      0.69499      .   S
    C74    O197      0.70125      .   S
    C72    O197      0.70125      .   S
    C130   O198      0.70222      .   S
    C107   O198      0.70222      .   S
    C130   O199      0.74448      .   S
    C129   O199      0.74448      .   S
    C126   O200      0.70215      .   S
    C71    O200      0.70215      .   S
    C126   O201      0.74426      .   S
    C125   O201      0.74426      .   S
    C110   O202      0.69485      .   S
    C109   O202      0.69485      .   S
    C110   O203      0.70112      .   S
    C108   O203      0.70112      .   S
    C107   O204      0.54344      .   S
    C35    O204      0.54344      .   S
    C71    O205      0.54336      .   S
    C17    O205      0.54336      .   S
    C73    O206      0.70405      .   S
    C75    O206      0.70405      .   S
    C109   O207      0.70359      .   S
    C111   O207      0.70359      .   S
    C78    O208      0.74458      .   S
    C72    O208      0.74458      .   S
    C78    O209      0.64056      .   S
    C140   O209      0.64056      .   S
    C114   O210      0.74420      .   S
    C108   O210      0.74420      .   S
    C114   O211      0.64057      .   S
    C152   O211      0.64057      .   S
    C150   O212      0.98925  1_455   S
    C2     O212      0.98925      .   S
    C138   O213      0.98652  1_545   S
    C2     O213      0.98652      .   S
    C81    O214      0.70179      .   S
    C129   O214      0.70179      .   S
    C81    O215      0.70111      .   S
    C80    O215      0.70111      .   S
    C117   O216      0.70180      .   S
    C125   O216      0.70180      .   S
    C117   O217      0.70109      .   S
    C116   O217      0.70109      .   S
    C72    O218      0.70063      .   S
    C77    O218      0.70063      .   S
    C108   O219      0.70131      .   S
    C113   O219      0.70131      .   S
    C129   O220      0.70191      .   S
    C105   O220      0.70191      .   S
    C125   O221      0.70185      .   S
    C69    O221      0.70185      .   S
    C2     O222      0.98603      .   S
    C140   O222      0.98603      .   S
    C2     O223      0.98398      .   S
    C152   O223      0.98398      .   S
    C75    O224      0.74001      .   S
    C80    O224      0.74001      .   S
    C75    O225      0.70370      .   S
    C76    O225      0.70370      .   S
    C111   O226      0.73987      .   S
    C116   O226      0.73987      .   S
    C111   O227      0.70391      .   S
    C112   O227      0.70391      .   S
    C80    O228      0.70125      .   S
    C128   O228      0.70125      .   S
    C116   O229      0.70111      .   S
    C124   O229      0.70111      .   S
    C77    O230      0.69518      .   S
    C76    O230      0.69518      .   S
    C77    O231      0.54481      .   S
    C21    O231      0.54481      .   S
    C113   O232      0.69492      .   S
    C112   O232      0.69492      .   S
    C113   O233      0.54443      .   S
    C39    O233      0.54443      .   S
    C105   O234      0.54376      .   S
    C34    O234      0.54376      .   S
    C105   O235      0.70130      .   S
    C104   O235      0.70130      .   S
    C69    O236      0.54371      .   S
    C16    O236      0.54371      .   S
    C69    O237      0.70111      .   S
    C68    O237      0.70111      .   S
    C76    O238      0.54502      .   S
    C20    O238      0.54502      .   S
    C112   O239      0.54502      .   S
    C38    O239      0.54502      .   S
    C128   O240      0.70121      .   S
    C104   O240      0.70121      .   S
    C128   O241      0.54476      .   S
    C46    O241      0.54476      .   S
    C124   O242      0.70110      .   S
    C68    O242      0.70110      .   S
    C124   O243      0.54472      .   S
    C44    O243      0.54472      .   S
    C104   O244      0.73981      .   S
    C99    O244      0.73981      .   S
    C68    O245      0.73985      .   S
    C63    O245      0.73985      .   S
    C12    O246      0.54502      .   S
    C61    O246      0.54502      .   S
    C30    O247      0.54503      .   S
    C97    O247      0.54503      .   S
    C99    O248      0.70420      .   S
    C97    O248      0.70420      .   S
    C99    O249      0.70425      .   S
    C100   O249      0.70425      .   S
    C63    O250      0.70393      .   S
    C61    O250      0.70393      .   S
    C63    O251      0.70372      .   S
    C64    O251      0.70372      .   S
    C97    O252      0.69494      .   S
    C98    O252      0.69494      .   S
    C61    O253      0.69494      .   S
    C62    O253      0.69494      .   S
    C32    O254      0.54505      .   S
    C100   O254      0.54505      .   S
    C14    O255      0.54507      .   S
    C64    O255      0.54507      .   S
    C100   O256      0.69516      .   S
    C101   O256      0.69516      .   S
    C64    O257      0.69496      .   S
    C65    O257      0.69496      .   S
    C62    O258      0.54442      .   S
    C13    O258      0.54442      .   S
    C62    O259      0.70113      .   S
    C60    O259      0.70113      .   S
    C98    O260      0.54440      .   S
    C31    O260      0.54440      .   S
    C98    O261      0.70083      .   S
    C96    O261      0.70083      .   S
    C101   O262      0.70118      .   S
    C96    O262      0.70118      .   S
    C101   O263      0.54443      .   S
    C33    O263      0.54443      .   S
    C65    O264      0.70135      .   S
    C60    O264      0.70135      .   S
    C65    O265      0.54439      .   S
    C15    O265      0.54439      .   S
    C96    O266      0.74546      .   S
    C102   O266      0.74546      .   S
    C60    O267      0.74443      .   S
    C66    O267      0.74443      .   S
    C102   O268      0.64043      .   S
    C151   O268      0.64043      .   S
    C102   O269      0.64050      .   S
    C148   O269      0.64050      .   S
    C66    O270      0.64039      .   S
    C139   O270      0.64039      .   S
    C66    O271      0.64055      .   S
    C136   O271      0.64055      .   S
    C151   O272      0.98741      .   S
    C5     O272      0.98741      .   S
    C139   O273      0.98724      .   S
    C3     O273      0.98724      .   S
    C136   O274      0.98331      .   S
    C1     O274      0.98331      .   S
    C148   O275      0.98568      .   S
    C0     O275      0.98568      .   S
    C7     O276      0.54442      .   S
    C50    O276      0.54442      .   S
    C6     O277      0.54500      .   S
    C49    O277      0.54500      .   S
    C25    O278      0.54443      .   S
    C86    O278      0.54443      .   S
    C24    O279      0.54498      .   S
    C85    O279      0.54498      .   S
    C50    O280      0.69494      .   S
    C49    O280      0.69494      .   S
    C50    O281      0.70121      .   S
    C48    O281      0.70121      .   S
    C49    O282      0.70399      .   S
    C51    O282      0.70399      .   S
    C86    O283      0.69498      .   S
    C85    O283      0.69498      .   S
    C86    O284      0.70117      .   S
    C84    O284      0.70117      .   S
    C85    O285      0.70377      .   S
    C87    O285      0.70377      .   S
    C5     O286      0.98789      .   S
    C135   O286      0.98789      .   S
    C5     O287      0.99022      .   S
    C145   O287      0.99022      .   S
    C5     O288      0.98938      .   S
    C141   O288      0.98938      .   S
    C3     O289      0.98609      .   S
    C147   O289      0.98609      .   S
    C3     O290      0.98855      .   S
    C133   O290      0.98855      .   S
    C3     O291      0.98930      .   S
    C153   O291      0.98930      .   S
    C135   O292      0.64038      .   S
    C54    O292      0.64038      .   S
    C147   O293      0.64042      .   S
    C90    O293      0.64042      .   S
    C145   O294      0.63877      .   S
    C91    O294      0.63877  1_545   S
    C133   O295      0.63894      .   S
    C55    O295      0.63894  1_455   S
    C43    O296      0.54365      .   S
    C123   O296      0.54365      .   S
    C123   O297      0.69881      .   S
    C94    O297      0.69881      .   S
    C123   O298      0.69893      .   S
    C58    O298      0.69893      .   S
    C42    O299      0.54473      .   S
    C120   O299      0.54473      .   S
    C54    O300      0.74464      .   S
    C48    O300      0.74464      .   S
    C54    O301      0.64050      .   S
    C132   O301      0.64050      .   S
    C91    O302      0.74735      .   S
    C94    O302      0.74735      .   S
    C91    O303      0.64001      .   S
    C146   O303      0.64001      .   S
    C55    O304      0.74724      .   S
    C58    O304      0.74724      .   S
    C55    O305      0.63985      .   S
    C134   O305      0.63985      .   S
    C90    O306      0.74444      .   S
    C84    O306      0.74444      .   S
    C90    O307      0.64048      .   S
    C144   O307      0.64048      .   S
    C48    O308      0.70135      .   S
    C53    O308      0.70135      .   S
    C94    O309      0.69950      .   S
    C95    O309      0.69950      .   S
    C58    O310      0.69950      .   S
    C59    O310      0.69950      .   S
    C84    O311      0.70121      .   S
    C89    O311      0.70121      .   S
    C51    O312      0.74010      .   S
    C56    O312      0.74010      .   S
    C51    O313      0.70372      .   S
    C52    O313      0.70372      .   S
    C120   O314      0.70117      .   S
    C56    O314      0.70117      .   S
    C120   O315      0.70129      .   S
    C92    O315      0.70129      .   S
    C87    O316      0.74006      .   S
    C92    O316      0.74006      .   S
    C87    O317      0.70394      .   S
    C88    O317      0.70394      .   S
    C56    O318      0.70128      .   S
    C57    O318      0.70128      .   S
    C92    O319      0.70118      .   S
    C93    O319      0.70118      .   S
    C95    O320      0.70229      .   S
    C122   O320      0.70229      .   S
    C95    O321      0.54336      .   S
    C29    O321      0.54336      .   S
    C59    O322      0.70234      .   S
    C122   O322      0.70234      .   S
    C59    O323      0.54342      .   S
    C11    O323      0.54342      .   S
    C57    O324      0.70188      .   S
    C121   O324      0.70188      .   S
    C57    O325      0.54371      .   S
    C10    O325      0.54371      .   S
    C122   O326      0.74460      .   S
    C121   O326      0.74460      .   S
    C93    O327      0.70189      .   S
    C121   O327      0.70189      .   S
    C93    O328      0.54371      .   S
    C28    O328      0.54371      .   S
    C146   O329      0.98702  1_545   S
    C0     O329      0.98702      .   S
    C134   O330      0.98863  1_455   S
    C1     O330      0.98863      .   S
    C132   O331      0.98483      .   S
    C0     O331      0.98483      .   S
    C144   O332      0.98533      .   S
    C1     O332      0.98533      .   S
    C53    O333      0.69507      .   S
    C52    O333      0.69507      .   S
    C53    O334      0.54443      .   S
    C9     O334      0.54443      .   S
    C89    O335      0.69496      .   S
    C88    O335      0.69496      .   S
    C89    O336      0.54449      .   S
    C27    O336      0.54449      .   S
    C52    O337      0.54518      .   S
    C8     O337      0.54518      .   S
    C88    O338      0.54502      .   S
    C26    O338      0.54502      .   S
    C0     O339      1.22446      .   S
    C5     O339      1.22446      .   S
    C1     O340      1.22482      .   S
    C3     O340      1.22482      .   S
    C2     O341      1.22541      .   S
    C4     O341      1.22541      .   S
