# CIF file generated by openbabel 2.4.90, see http://openbabel.sf.net
data_I
_chemical_name_common ''
_cell_length_a 17.739
_cell_length_b 17.719
_cell_length_c 17.713
_cell_angle_alpha 96.741
_cell_angle_beta 96.796
_cell_angle_gamma 96.639
_space_group_name_H-M_alt 'P 1'
_space_group_name_Hall 'P 1'
loop_
    _symmetry_equiv_pos_as_xyz
    x,y,z
loop_
    _atom_site_label
    _atom_site_type_symbol
    _atom_site_fract_x
    _atom_site_fract_y
    _atom_site_fract_z
    _atom_site_occupancy
    Zr0     Zr   0.30527   0.90409   0.90378   1.000
    Zr1     Zr   0.90483   0.30495   0.90380   1.000
    Zr2     Zr   0.90454   0.90442   0.30435   1.000
    Zr3     Zr   0.85582   0.17115   0.85430   1.000
    Zr4     Zr   0.85520   0.85496   0.17040   1.000
    Zr5     Zr   0.17183   0.85466   0.85380   1.000
    Zr6     Zr   0.27109   0.74275   0.87957   1.000
    Zr7     Zr   0.01713   0.20612   0.87995   1.000
    Zr8     Zr   0.88005   0.27020   0.74234   1.000
    Zr9     Zr   0.88193   0.01655   0.20540   1.000
    Zr10    Zr   0.74317   0.88120   0.26873   1.000
    Zr11    Zr   0.20524   0.87995   0.01521   1.000
    Zr12    Zr   0.74366   0.26963   0.88042   1.000
    Zr13    Zr   0.20604   0.01615   0.87987   1.000
    Zr14    Zr   0.27160   0.87983   0.74231   1.000
    Zr15    Zr   0.01645   0.88010   0.20510   1.000
    Zr16    Zr   0.88024   0.74315   0.26969   1.000
    Zr17    Zr   0.88218   0.20570   0.01584   1.000
    Zr18    Zr   0.32597   0.79716   0.90270   1.000
    Zr19    Zr   0.96333   0.15095   0.85668   1.000
    Zr20    Zr   0.00893   0.27570   0.90222   1.000
    Zr21    Zr   0.20185   0.75087   0.85570   1.000
    Zr22    Zr   0.90323   0.32514   0.79683   1.000
    Zr23    Zr   0.85947   0.96266   0.15003   1.000
    Zr24    Zr   0.90306   0.00843   0.27528   1.000
    Zr25    Zr   0.85637   0.20090   0.75036   1.000
    Zr26    Zr   0.79736   0.90338   0.32416   1.000
    Zr27    Zr   0.15016   0.85734   0.96106   1.000
    Zr28    Zr   0.27488   0.90174   0.00730   1.000
    Zr29    Zr   0.75145   0.85762   0.19941   1.000
    Zr30    Zr   0.79776   0.32494   0.90300   1.000
    Zr31    Zr   0.15097   0.96229   0.85654   1.000
    Zr32    Zr   0.27558   0.00794   0.90215   1.000
    Zr33    Zr   0.75210   0.20043   0.85652   1.000
    Zr34    Zr   0.32637   0.90321   0.79690   1.000
    Zr35    Zr   0.96252   0.85665   0.15000   1.000
    Zr36    Zr   0.00847   0.90268   0.27469   1.000
    Zr37    Zr   0.20237   0.85607   0.75027   1.000
    Zr38    Zr   0.90342   0.79752   0.32475   1.000
    Zr39    Zr   0.85962   0.15036   0.96193   1.000
    Zr40    Zr   0.90342   0.27546   0.00767   1.000
    Zr41    Zr   0.85600   0.75124   0.20046   1.000
    O42     O    0.24006   0.89084   0.01126   1.000
    O43     O    0.29008   0.90292   0.95554   1.000
    O44     O    0.89280   0.24058   0.01175   1.000
    O45     O    0.90413   0.29021   0.95574   1.000
    O46     O    0.17770   0.86864   0.98813   1.000
    O47     O    0.87090   0.17803   0.98889   1.000
    O48     O    0.90886   0.85581   0.16020   1.000
    O49     O    0.98949   0.86837   0.17755   1.000
    O50     O    0.85733   0.90881   0.16021   1.000
    O51     O    0.87070   0.98961   0.17772   1.000
    O52     O    0.80332   0.85629   0.18490   1.000
    O53     O    0.85560   0.80310   0.18543   1.000
    O54     O    0.74731   0.86941   0.23407   1.000
    O55     O    0.86812   0.74719   0.23508   1.000
    O56     O    0.01246   0.89139   0.23990   1.000
    O57     O    0.89250   0.01249   0.24034   1.000
    O58     O    0.77027   0.89229   0.29645   1.000
    O59     O    0.89183   0.77033   0.29722   1.000
    O60     O    0.95650   0.90355   0.28952   1.000
    O61     O    0.90380   0.95643   0.28982   1.000
    O62     O    0.85095   0.90390   0.31426   1.000
    O63     O    0.90398   0.85097   0.31455   1.000
    O64     O    0.23698   0.86795   0.74629   1.000
    O65     O    0.29898   0.89152   0.76961   1.000
    O66     O    0.86821   0.23555   0.74635   1.000
    O67     O    0.89164   0.29767   0.76959   1.000
    O68     O    0.18710   0.85537   0.80204   1.000
    O69     O    0.85609   0.18602   0.80233   1.000
    O70     O    0.90403   0.31505   0.85032   1.000
    O71     O    0.31582   0.90365   0.85034   1.000
    O72     O    0.18684   0.80276   0.85475   1.000
    O73     O    0.16140   0.90848   0.85517   1.000
    O74     O    0.16099   0.85600   0.90743   1.000
    O75     O    0.80396   0.18579   0.85541   1.000
    O76     O    0.90957   0.16105   0.85549   1.000
    O77     O    0.85772   0.16075   0.90812   1.000
    O78     O    0.23647   0.74681   0.86763   1.000
    O79     O    0.74788   0.23503   0.86847   1.000
    O80     O    0.17850   0.98922   0.86821   1.000
    O81     O    0.99023   0.17854   0.86832   1.000
    O82     O    0.29853   0.76995   0.89114   1.000
    O83     O    0.24081   0.01204   0.89101   1.000
    O84     O    0.01303   0.24091   0.89109   1.000
    O85     O    0.77071   0.29729   0.89171   1.000
    O86     O    0.29043   0.95601   0.90297   1.000
    O87     O    0.95688   0.29033   0.90301   1.000
    O88     O    0.31562   0.85063   0.90324   1.000
    O89     O    0.85129   0.31495   0.90340   1.000
    O90     O    0.23855   0.87938   0.87879   1.000
    O91     O    0.88033   0.23805   0.87905   1.000
    O92     O    0.87987   0.87969   0.23737   1.000
    N93     N    0.17145   0.88404   0.17062   1.000
    O94     O    0.18379   0.88233   0.11301   1.000
    O95     O    0.11400   0.88246   0.18326   1.000
    N96     N    0.35747   0.88785   0.35573   1.000
    O97     O    0.28787   0.88730   0.28653   1.000
    O98     O    0.64583   0.88351   0.29060   1.000
    O99     O    0.29389   0.88102   0.64479   1.000
    N100    N    0.88659   0.17184   0.17123   1.000
    O101    O    0.88477   0.11428   0.18375   1.000
    O102    O    0.88484   0.18424   0.11363   1.000
    N103    N    0.88936   0.35731   0.35646   1.000
    O104    O    0.88930   0.28795   0.28720   1.000
    O105    O    0.88259   0.64581   0.29181   1.000
    O106    O    0.88180   0.29261   0.64498   1.000
    N107    N    0.35789   0.35654   0.88821   1.000
    N108    N    0.17226   0.17170   0.88430   1.000
    O109    O    0.18462   0.11404   0.88250   1.000
    O110    O    0.11477   0.18433   0.88256   1.000
    O111    O    0.24205   0.24121   0.88670   1.000
    O112    O    0.64630   0.29155   0.88272   1.000
    O113    O    0.29348   0.64534   0.88124   1.000
loop_
    _geom_bond_atom_site_label_1
    _geom_bond_atom_site_label_2
    _geom_bond_distance
    _geom_bond_site_symmetry_2
    _ccdc_geom_bond_type
    Zr28   O42       0.64000      .   S
    Zr11   O42       0.64000      .   S
    Zr28   O43       0.98759  1_554   S
    Zr0    O43       0.98759      .   S
    Zr40   O44       0.63992      .   S
    Zr17   O44       0.63992      .   S
    Zr40   O45       0.98643  1_554   S
    Zr1    O45       0.98643      .   S
    Zr11   O46       0.63887  1_554   S
    Zr27   O46       0.63887      .   S
    Zr17   O47       0.63887  1_554   S
    Zr39   O47       0.63887      .   S
    Zr35   O48       0.98842      .   S
    Zr4    O48       0.98842      .   S
    Zr35   O49       0.63883      .   S
    Zr15   O49       0.63883  1_455   S
    Zr23   O50       0.98897      .   S
    Zr4    O50       0.98897      .   S
    Zr23   O51       0.63878      .   S
    Zr9    O51       0.63878  1_545   S
    Zr4    O52       0.98639      .   S
    Zr29   O52       0.98639      .   S
    Zr4    O53       0.98684      .   S
    Zr41   O53       0.98684      .   S
    Zr29   O54       0.64035      .   S
    Zr10   O54       0.64035      .   S
    Zr41   O55       0.64031      .   S
    Zr16   O55       0.64031      .   S
    Zr15   O56       0.63997      .   S
    Zr36   O56       0.63997      .   S
    Zr9    O57       0.63989      .   S
    Zr24   O57       0.63989      .   S
    Zr10   O58       0.64056      .   S
    Zr26   O58       0.64056      .   S
    Zr16   O59       0.64057      .   S
    Zr38   O59       0.64057      .   S
    Zr36   O60       0.98925  1_455   S
    Zr2    O60       0.98925      .   S
    Zr24   O61       0.98652  1_545   S
    Zr2    O61       0.98652      .   S
    Zr2    O62       0.98603      .   S
    Zr26   O62       0.98603      .   S
    Zr2    O63       0.98398      .   S
    Zr38   O63       0.98398      .   S
    Zr14   O64       0.64043      .   S
    Zr37   O64       0.64043      .   S
    Zr14   O65       0.64050      .   S
    Zr34   O65       0.64050      .   S
    Zr8    O66       0.64039      .   S
    Zr25   O66       0.64039      .   S
    Zr8    O67       0.64055      .   S
    Zr22   O67       0.64055      .   S
    Zr37   O68       0.98741      .   S
    Zr5    O68       0.98741      .   S
    Zr25   O69       0.98724      .   S
    Zr3    O69       0.98724      .   S
    Zr22   O70       0.98331      .   S
    Zr1    O70       0.98331      .   S
    Zr34   O71       0.98568      .   S
    Zr0    O71       0.98568      .   S
    Zr5    O72       0.98789      .   S
    Zr21   O72       0.98789      .   S
    Zr5    O73       0.99022      .   S
    Zr31   O73       0.99022      .   S
    Zr5    O74       0.98938      .   S
    Zr27   O74       0.98938      .   S
    Zr3    O75       0.98609      .   S
    Zr33   O75       0.98609      .   S
    Zr3    O76       0.98855      .   S
    Zr19   O76       0.98855      .   S
    Zr3    O77       0.98930      .   S
    Zr39   O77       0.98930      .   S
    Zr21   O78       0.64038      .   S
    Zr6    O78       0.64038      .   S
    Zr33   O79       0.64042      .   S
    Zr12   O79       0.64042      .   S
    Zr31   O80       0.63877      .   S
    Zr13   O80       0.63877  1_545   S
    Zr19   O81       0.63894      .   S
    Zr7    O81       0.63894  1_455   S
    Zr6    O82       0.64050      .   S
    Zr18   O82       0.64050      .   S
    Zr13   O83       0.64001      .   S
    Zr32   O83       0.64001      .   S
    Zr7    O84       0.63985      .   S
    Zr20   O84       0.63985      .   S
    Zr12   O85       0.64048      .   S
    Zr30   O85       0.64048      .   S
    Zr32   O86       0.98702  1_545   S
    Zr0    O86       0.98702      .   S
    Zr20   O87       0.98863  1_455   S
    Zr1    O87       0.98863      .   S
    Zr18   O88       0.98483      .   S
    Zr0    O88       0.98483      .   S
    Zr30   O89       0.98533      .   S
    Zr1    O89       0.98533      .   S
    Zr0    O90       1.22446      .   S
    Zr5    O90       1.22446      .   S
    Zr1    O91       1.22482      .   S
    Zr3    O91       1.22482      .   S
    Zr2    O92       1.22541      .   S
    Zr4    O92       1.22541      .   S
    N93    O94       1.06649      .   S
    Zr11   O94       1.81378      .   S
    N93    O95       1.06693      .   S
    Zr15   O95       1.81413      .   S
    N96    O97       1.63187      .   S
    N93    O97       2.72488      .   S
    N96    O98       5.38229      .   S
    Zr10   O98       1.81781      .   S
    N96    O99       5.38359      .   S
    Zr14   O99       1.81898      .   S
    N100   O101      1.06655      .   S
    Zr9    O101      1.81337      .   S
    N100   O102      1.06626      .   S
    Zr17   O102      1.81299      .   S
    N103   O104      1.63116      .   S
    N100   O104      2.72330      .   S
    N103   O105      5.37979      .   S
    Zr16   O105      1.81690      .   S
    N103   O106      5.38073      .   S
    Zr8    O106      1.81745      .   S
    N108   O109      1.06720      .   S
    Zr13   O109      1.81451      .   S
    N108   O110      1.06682      .   S
    Zr7    O110      1.81403      .   S
    N108   O111      1.63525      .   S
    N107   O111      2.72065      .   S
    N107   O112      5.38185      .   S
    Zr12   O112      1.81751      .   S
    N107   O113      5.38284      .   S
    Zr6    O113      1.81802      .   S
