# CIF file generated by openbabel 2.4.90, see http://openbabel.sf.net
data_I
_chemical_name_common ''
_cell_length_a 7.525
_cell_length_b 12.561
_cell_length_c 12.567
_cell_angle_alpha 85.092
_cell_angle_beta 82.732
_cell_angle_gamma 82.585
_space_group_name_H-M_alt 'P 1'
_space_group_name_Hall 'P 1'
loop_
    _symmetry_equiv_pos_as_xyz
    x,y,z
loop_
    _atom_site_label
    _atom_site_type_symbol
    _atom_site_fract_x
    _atom_site_fract_y
    _atom_site_fract_z
    _atom_site_occupancy
    N0      N    0.35900   0.43858   0.28041   1.000
    N1      N    0.85865   0.28037   0.43877   1.000
    N2      N    0.14138   0.71962   0.56121   1.000
    N3      N    0.64106   0.56142   0.71962   1.000
    Zr4     Zr   0.40658   0.94054   0.35622   1.000
    O5      O    0.37996   0.08307   0.33527   1.000
    O6      O    0.40547   0.79674   0.33342   1.000
    O7      O    0.54986   0.03113   0.37862   1.000
    O8      O    0.31967   0.88073   0.42581   1.000
    Zr9     Zr   0.59335   0.05949   0.64377   1.000
    O10     O    0.59449   0.20328   0.66657   1.000
    O11     O    0.62001   0.91695   0.66473   1.000
    O12     O    0.45011   0.96888   0.62135   1.000
    O13     O    0.68029   0.11928   0.57416   1.000
    Zr14    Zr   0.09416   0.64378   0.05938   1.000
    O15     O    0.95054   0.62145   0.96881   1.000
    O16     O    0.18097   0.57408   0.11921   1.000
    O17     O    0.12058   0.66476   0.91683   1.000
    O18     O    0.09517   0.66657   0.20314   1.000
    Zr19    Zr   0.90615   0.35621   0.94057   1.000
    O20     O    0.81926   0.42590   0.88077   1.000
    O21     O    0.04966   0.37853   0.03118   1.000
    O22     O    0.87966   0.33521   0.08313   1.000
    O23     O    0.90502   0.33342   0.79683   1.000
loop_
    _geom_bond_atom_site_label_1
    _geom_bond_atom_site_label_2
    _geom_bond_distance
    _geom_bond_site_symmetry_2
    _ccdc_geom_bond_type
    Zr4    O5        1.77620  1_565   S
    N0     O5        4.44527      .   S
    Zr4    O6        1.85410      .   S
    N0     O6        4.66729      .   S
    Zr4    O7        1.72775  1_565   S
    N1     O7        4.30097      .   S
    Zr4    O8        1.27544      .   S
    N2     O8        2.88521      .   S
    Zr9    O10       1.85411      .   S
    N3     O10       4.66733      .   S
    Zr9    O11       1.77626  1_545   S
    N3     O11       4.44549      .   S
    Zr9    O12       1.72774  1_545   S
    N2     O12       4.30091      .   S
    Zr9    O13       1.27547      .   S
    N1     O13       2.88526      .   S
    Zr14   O15       1.72806  1_454   S
    N3     O15       4.30130      .   S
    Zr14   O16       1.27377      .   S
    N0     O16       2.88163      .   S
    Zr14   O17       1.77792  1_554   S
    N2     O17       4.44924      .   S
    Zr14   O18       1.85433      .   S
    N2     O18       4.66712      .   S
    Zr19   O20       1.27387      .   S
    N3     O20       2.88184      .   S
    Zr19   O21       1.72785  1_656   S
    N0     O21       4.30113      .   S
    Zr19   O22       1.77798  1_556   S
    N1     O22       4.44937      .   S
    Zr19   O23       1.85415      .   S
    N1     O23       4.66737      .   S
