# CIF file generated by openbabel 2.4.90, see http://openbabel.sf.net
data_I
_chemical_name_common ''
_cell_length_a 7.525
_cell_length_b 12.561
_cell_length_c 12.567
_cell_angle_alpha 85.092
_cell_angle_beta 82.732
_cell_angle_gamma 82.585
_space_group_name_H-M_alt 'P 1'
_space_group_name_Hall 'P 1'
loop_
    _symmetry_equiv_pos_as_xyz
    x,y,z
loop_
    _atom_site_label
    _atom_site_type_symbol
    _atom_site_fract_x
    _atom_site_fract_y
    _atom_site_fract_z
    _atom_site_occupancy
    Zr0     Zr   0.90615   0.35621   0.94057   1.000
    Zr1     Zr   0.40658   0.94054   0.35622   1.000
    Zr2     Zr   0.59335   0.05949   0.64377   1.000
    Zr3     Zr   0.09416   0.64378   0.05938   1.000
    N4      N    0.35900   0.43858   0.28041   1.000
    O5      O    0.40436   0.65294   0.31062   1.000
    O6      O    0.35333   0.22560   0.31432   1.000
    O7      O    0.26778   0.50438   0.17904   1.000
    O8      O    0.19317   0.40086   0.12179   1.000
    N9      N    0.85865   0.28037   0.43877   1.000
    O10     O    0.90390   0.31064   0.65309   1.000
    O11     O    0.85317   0.31422   0.22568   1.000
    O12     O    0.76723   0.17908   0.50456   1.000
    O13     O    0.69314   0.12173   0.40103   1.000
    N14     N    0.14138   0.71962   0.56121   1.000
    O15     O    0.09619   0.68936   0.34690   1.000
    O16     O    0.14700   0.68574   0.77427   1.000
    O17     O    0.23276   0.82092   0.49541   1.000
    O18     O    0.30686   0.87827   0.59894   1.000
    N19     N    0.64106   0.56142   0.71962   1.000
    O20     O    0.59564   0.34707   0.68938   1.000
    O21     O    0.64667   0.77442   0.68570   1.000
    O22     O    0.73236   0.49560   0.82097   1.000
    O23     O    0.80692   0.59912   0.87824   1.000
loop_
    _geom_bond_atom_site_label_1
    _geom_bond_atom_site_label_2
    _geom_bond_distance
    _geom_bond_site_symmetry_2
    _ccdc_geom_bond_type
    N4     O5        2.82061      .   S
    Zr1    O5        3.70820      .   S
    N4     O6        2.67770      .   S
    Zr1    O6        3.55239  1_565   S
    N4     O7        1.63464      .   S
    Zr3    O7        2.54755      .   S
    N4     O8        2.58823      .   S
    Zr0    O8        3.45569  1_656   S
    N9     O10       2.82058      .   S
    Zr0    O10       3.70830      .   S
    N9     O11       2.67987      .   S
    Zr0    O11       3.55596  1_556   S
    N9     O12       1.63637      .   S
    Zr2    O12       2.55094      .   S
    N9     O13       2.58813      .   S
    Zr1    O13       3.45550  1_565   S
    N14    O15       2.82020      .   S
    Zr3    O15       3.70866      .   S
    N14    O16       2.67980      .   S
    Zr3    O16       3.55584  1_554   S
    N14    O17       1.63635      .   S
    Zr1    O17       2.55087      .   S
    N14    O18       2.58807      .   S
    Zr2    O18       3.45547  1_545   S
    N19    O20       2.82065      .   S
    Zr2    O20       3.70821      .   S
    N19    O21       2.67786      .   S
    Zr2    O21       3.55252  1_545   S
    N19    O22       1.63476      .   S
    Zr0    O22       2.54773      .   S
    N19    O23       2.58827      .   S
    Zr3    O23       3.45613  1_454   S
