# CIF file generated by openbabel 2.4.90, see http://openbabel.sf.net
data_I
_chemical_name_common ''
_cell_length_a 7.525
_cell_length_b 12.561
_cell_length_c 12.567
_cell_angle_alpha 85.092
_cell_angle_beta 82.732
_cell_angle_gamma 82.585
_space_group_name_H-M_alt 'P 1'
_space_group_name_Hall 'P 1'
loop_
    _symmetry_equiv_pos_as_xyz
    x,y,z
loop_
    _atom_site_label
    _atom_site_type_symbol
    _atom_site_fract_x
    _atom_site_fract_y
    _atom_site_fract_z
    _atom_site_occupancy
    C0      C    0.90615   0.35621   0.94057   1.000
    C1      C    0.40658   0.94054   0.35622   1.000
    C2      C    0.59335   0.05949   0.64377   1.000
    C3      C    0.09416   0.64378   0.05938   1.000
    C4      C    0.44767   0.41686   0.46800   1.000
    C5      C    0.94737   0.46787   0.41687   1.000
    C6      C    0.05267   0.53211   0.58311   1.000
    C7      C    0.55243   0.58317   0.53204   1.000
    C8      C    0.43605   0.52925   0.33404   1.000
    C9      C    0.36195   0.35035   0.33774   1.000
    C10     C    0.32454   0.46977   0.19289   1.000
    C11     C    0.49412   0.70143   0.35038   1.000
    C12     C    0.31724   0.17061   0.36251   1.000
    C13     C    0.20290   0.42413   0.04402   1.000
    C14     C    0.93535   0.33413   0.52949   1.000
    C15     C    0.86165   0.33756   0.35049   1.000
    C16     C    0.82384   0.19296   0.47011   1.000
    C17     C    0.99352   0.35058   0.70166   1.000
    C18     C    0.81757   0.36214   0.17059   1.000
    C19     C    0.70261   0.04403   0.42444   1.000
    C20     C    0.06468   0.66584   0.47047   1.000
    C21     C    0.13843   0.66242   0.64946   1.000
    C22     C    0.17615   0.80703   0.52985   1.000
    C23     C    0.00648   0.64946   0.29842   1.000
    C24     C    0.18264   0.63780   0.82934   1.000
    C25     C    0.29734   0.95598   0.57551   1.000
    C26     C    0.56405   0.47075   0.66597   1.000
    C27     C    0.63813   0.64966   0.66231   1.000
    C28     C    0.67560   0.53020   0.80713   1.000
    C29     C    0.50588   0.29860   0.64961   1.000
    C30     C    0.68278   0.82942   0.63755   1.000
    C31     C    0.79714   0.57581   0.95605   1.000
    C32     C    0.42006   0.43055   0.38814   1.000
    C33     C    0.31596   0.36839   0.23823   1.000
    C34     C    0.38817   0.55061   0.23542   1.000
    C35     C    0.50015   0.60178   0.38867   1.000
    C36     C    0.49287   0.79407   0.32546   1.000
    C37     C    0.34618   0.25806   0.39908   1.000
    C38     C    0.28874   0.08471   0.34026   1.000
    C39     C    0.25894   0.49659   0.09595   1.000
    C40     C    0.14852   0.37008   0.98577   1.000
    C41     C    0.91948   0.38810   0.43071   1.000
    C42     C    0.81557   0.23810   0.36864   1.000
    C43     C    0.88739   0.23558   0.55094   1.000
    C44     C    0.99955   0.38880   0.60205   1.000
    C45     C    0.99213   0.32563   0.79426   1.000
    C46     C    0.84629   0.39872   0.25807   1.000
    C47     C    0.78922   0.33996   0.08464   1.000
    C48     C    0.75825   0.09609   0.49694   1.000
    C49     C    0.64866   0.98567   0.37035   1.000
    C50     C    0.08053   0.61189   0.56925   1.000
    C51     C    0.18447   0.76188   0.63131   1.000
    C52     C    0.11256   0.76441   0.44903   1.000
    C53     C    0.00051   0.61121   0.39802   1.000
    C54     C    0.00782   0.67442   0.20582   1.000
    C55     C    0.15380   0.60125   0.74187   1.000
    C56     C    0.21107   0.65994   0.91529   1.000
    C57     C    0.24168   0.90392   0.50301   1.000
    C58     C    0.35131   0.01434   0.62959   1.000
    C59     C    0.58006   0.56946   0.61189   1.000
    C60     C    0.68415   0.63160   0.76182   1.000
    C61     C    0.61198   0.44937   0.76458   1.000
    C62     C    0.49992   0.39824   0.61134   1.000
    C63     C    0.50707   0.20596   0.67452   1.000
    C64     C    0.65391   0.74195   0.60098   1.000
    C65     C    0.71123   0.91534   0.65979   1.000
    C66     C    0.74119   0.50336   0.90408   1.000
    C67     C    0.85140   0.62987   0.01435   1.000
    O68     O    0.97278   0.63683   0.03686   1.000
    O69     O    0.82427   0.60284   0.98520   1.000
    O70     O    0.23092   0.46036   0.06999   1.000
    O71     O    0.17571   0.39710   0.01490   1.000
    O72     O    0.17655   0.57018   0.07766   1.000
    O73     O    0.05099   0.65910   0.13260   1.000
    O74     O    0.15261   0.65186   0.98734   1.000
    O75     O    0.80339   0.35105   0.12761   1.000
    O76     O    0.84768   0.34808   0.01260   1.000
    O77     O    0.29174   0.48318   0.14442   1.000
    O78     O    0.83193   0.38043   0.21433   1.000
    O79     O    0.35636   0.51019   0.21416   1.000
    O80     O    0.32025   0.41908   0.21556   1.000
    O81     O    0.00715   0.66194   0.25212   1.000
    O82     O    0.41211   0.53993   0.28473   1.000
    O83     O    0.33895   0.35937   0.28799   1.000
    O84     O    0.85397   0.36814   0.30428   1.000
    O85     O    0.00350   0.63033   0.34822   1.000
    O86     O    0.49350   0.74775   0.33792   1.000
    O87     O    0.44973   0.86730   0.34084   1.000
    O88     O    0.42805   0.47990   0.36109   1.000
    O89     O    0.46810   0.56552   0.36135   1.000
    O90     O    0.39100   0.39045   0.36294   1.000
    O91     O    0.35406   0.30421   0.36841   1.000
    O92     O    0.34766   0.01262   0.34824   1.000
    O93     O    0.30299   0.12766   0.35139   1.000
    O94     O    0.49714   0.65161   0.36952   1.000
    O95     O    0.83861   0.28783   0.35957   1.000
    O96     O    0.89056   0.36283   0.39060   1.000
    O97     O    0.52762   0.96310   0.36328   1.000
    O98     O    0.32413   0.92223   0.42962   1.000
    O99     O    0.33171   0.21434   0.38080   1.000
    O100    O    0.81970   0.21553   0.41938   1.000
    O101    O    0.67564   0.01485   0.39740   1.000
    O102    O    0.43386   0.42371   0.42807   1.000
    O103    O    0.03259   0.63852   0.43424   1.000
    O104    O    0.93342   0.42798   0.42379   1.000
    O105    O    0.73043   0.07006   0.46069   1.000
    O106    O    0.92741   0.36111   0.48010   1.000
    O107    O    0.08862   0.71513   0.45975   1.000
    O108    O    0.14435   0.78572   0.48944   1.000
    O109    O    0.79104   0.14452   0.48353   1.000
    O110    O    0.85562   0.21427   0.51052   1.000
    O111    O    0.07260   0.63887   0.51986   1.000
    O112    O    0.67580   0.07779   0.57035   1.000
    O113    O    0.20891   0.85547   0.51643   1.000
    O114    O    0.26951   0.92995   0.53926   1.000
    O115    O    0.91137   0.28485   0.54021   1.000
    O116    O    0.96745   0.36146   0.56577   1.000
    O117    O    0.18031   0.78446   0.58058   1.000
    O118    O    0.56625   0.57632   0.57196   1.000
    O119    O    0.06660   0.57200   0.57618   1.000
    O120    O    0.10948   0.63715   0.60936   1.000
    O121    O    0.32432   0.98516   0.60255   1.000
    O122    O    0.66835   0.78568   0.61927   1.000
    O123    O    0.64602   0.69580   0.63165   1.000
    O124    O    0.99653   0.36969   0.65185   1.000
    O125    O    0.50290   0.34842   0.63047   1.000
    O126    O    0.53199   0.43450   0.63865   1.000
    O127    O    0.60910   0.60956   0.63710   1.000
    O128    O    0.57206   0.52011   0.63893   1.000
    O129    O    0.47233   0.03691   0.63668   1.000
    O130    O    0.16145   0.71215   0.64038   1.000
    O131    O    0.69700   0.87238   0.64867   1.000
    O132    O    0.65229   0.98741   0.65178   1.000
    O133    O    0.55021   0.13272   0.65914   1.000
    O134    O    0.14612   0.63183   0.69567   1.000
    O135    O    0.50648   0.25228   0.66206   1.000
    O136    O    0.66114   0.64063   0.71206   1.000
    O137    O    0.58802   0.46006   0.71527   1.000
    O138    O    0.99282   0.33810   0.74796   1.000
    O139    O    0.16822   0.61952   0.78561   1.000
    O140    O    0.67988   0.58090   0.78447   1.000
    O141    O    0.64379   0.48979   0.78586   1.000
    O142    O    0.94914   0.34092   0.86741   1.000
    O143    O    0.70839   0.51678   0.85561   1.000
    O144    O    0.19685   0.64887   0.87232   1.000
    O145    O    0.82367   0.42978   0.92232   1.000
    O146    O    0.76916   0.53959   0.93006   1.000
    O147    O    0.02733   0.36314   0.96317   1.000
loop_
    _geom_bond_atom_site_label_1
    _geom_bond_atom_site_label_2
    _geom_bond_distance
    _geom_bond_site_symmetry_2
    _ccdc_geom_bond_type
    C67    O68       1.00609      .   S
    C3     O68       1.00609  1_455   S
    C67    O69       0.59095  1_554   S
    C31    O69       0.59095      .   S
    C13    O70       0.65236      .   S
    C39    O70       0.65236      .   S
    C13    O71       0.59095      .   S
    C40    O71       0.59095  1_556   S
    C3     O72       1.06936      .   S
    C39    O72       1.06936      .   S
    C3     O73       0.96320      .   S
    C54    O73       0.96320      .   S
    C3     O74       0.95840  1_554   S
    C56    O74       0.95840      .   S
    C47    O75       0.59478      .   S
    C18    O75       0.59478      .   S
    C47    O76       0.95838      .   S
    C0     O76       0.95838  1_556   S
    C39    O77       0.68565      .   S
    C10    O77       0.68565      .   S
    C18    O78       0.64004      .   S
    C46    O78       0.64004      .   S
    C10    O79       0.67621      .   S
    C34    O79       0.67621      .   S
    C10    O80       0.67794      .   S
    C33    O80       0.67794      .   S
    C54    O81       0.58905      .   S
    C23    O81       0.58905      .   S
    C34    O82       0.66500      .   S
    C8     O82       0.66500      .   S
    C33    O83       0.66631      .   S
    C9     O83       0.66631      .   S
    C46    O84       0.67287      .   S
    C15    O84       0.67287      .   S
    C23    O85       0.64960      .   S
    C53    O85       0.64960      .   S
    C36    O86       0.58906      .   S
    C11    O86       0.58906      .   S
    C36    O87       0.96248      .   S
    C1     O87       0.96248      .   S
    C8     O88       0.68692      .   S
    C32    O88       0.68692      .   S
    C8     O89       0.67790      .   S
    C35    O89       0.67790      .   S
    C9     O90       0.68921      .   S
    C32    O90       0.68921      .   S
    C9     O91       0.67296      .   S
    C37    O91       0.67296      .   S
    C38    O92       0.95844      .   S
    C1     O92       0.95844  1_565   S
    C38    O93       0.59480      .   S
    C12    O93       0.59480      .   S
    C11    O94       0.64959      .   S
    C35    O94       0.64959      .   S
    C15    O95       0.66634      .   S
    C42    O95       0.66634      .   S
    C15    O96       0.68928      .   S
    C41    O96       0.68928      .   S
    C1     O97       1.00460      .   S
    C49    O97       1.00460      .   S
    C1     O98       1.06978      .   S
    C57    O98       1.06978      .   S
    C12    O99       0.64007      .   S
    C37    O99       0.64007      .   S
    C42    O100      0.67797      .   S
    C16    O100      0.67797      .   S
    C49    O101      0.59080  1_565   S
    C19    O101      0.59080      .   S
    C32    O102      0.52295      .   S
    C4     O102      0.52295      .   S
    C53    O103      0.67764      .   S
    C20    O103      0.67764      .   S
    C5     O104      0.52289      .   S
    C41    O104      0.52289      .   S
    C19    O105      0.65234      .   S
    C48    O105      0.65234      .   S
    C41    O106      0.68692      .   S
    C14    O106      0.68692      .   S
    C52    O107      0.66502      .   S
    C20    O107      0.66502      .   S
    C52    O108      0.67620      .   S
    C22    O108      0.67620      .   S
    C16    O109      0.68566      .   S
    C48    O109      0.68566      .   S
    C16    O110      0.67622      .   S
    C43    O110      0.67622      .   S
    C20    O111      0.68692      .   S
    C50    O111      0.68692      .   S
    C48    O112      1.06985      .   S
    C2     O112      1.06985      .   S
    C57    O113      0.68567      .   S
    C22    O113      0.68567      .   S
    C57    O114      0.65233      .   S
    C25    O114      0.65233      .   S
    C14    O115      0.66502      .   S
    C43    O115      0.66502      .   S
    C14    O116      0.67833      .   S
    C44    O116      0.67833      .   S
    C22    O117      0.67797      .   S
    C51    O117      0.67797      .   S
    C7     O118      0.52294      .   S
    C59    O118      0.52294      .   S
    C50    O119      0.52290      .   S
    C6     O119      0.52290      .   S
    C50    O120      0.68928      .   S
    C21    O120      0.68928      .   S
    C25    O121      0.59080      .   S
    C58    O121      0.59080  1_545   S
    C64    O122      0.64006      .   S
    C30    O122      0.64006      .   S
    C64    O123      0.67296      .   S
    C27    O123      0.67296      .   S
    C44    O124      0.64961      .   S
    C17    O124      0.64961      .   S
    C62    O125      0.64959      .   S
    C29    O125      0.64959      .   S
    C62    O126      0.67789      .   S
    C26    O126      0.67789      .   S
    C59    O127      0.68922      .   S
    C27    O127      0.68922      .   S
    C59    O128      0.68692      .   S
    C26    O128      0.68692      .   S
    C58    O129      1.00460      .   S
    C2     O129      1.00460      .   S
    C51    O130      0.66634      .   S
    C21    O130      0.66634      .   S
    C30    O131      0.59481      .   S
    C65    O131      0.59481      .   S
    C2     O132      0.95840  1_545   S
    C65    O132      0.95840      .   S
    C2     O133      0.96250      .   S
    C63    O133      0.96250      .   S
    C21    O134      0.67286      .   S
    C55    O134      0.67286      .   S
    C29    O135      0.58905      .   S
    C63    O135      0.58905      .   S
    C27    O136      0.66631      .   S
    C60    O136      0.66631      .   S
    C26    O137      0.66499      .   S
    C61    O137      0.66499      .   S
    C17    O138      0.58906      .   S
    C45    O138      0.58906      .   S
    C55    O139      0.64003      .   S
    C24    O139      0.64003      .   S
    C60    O140      0.67795      .   S
    C28    O140      0.67795      .   S
    C61    O141      0.67622      .   S
    C28    O141      0.67622      .   S
    C45    O142      0.96209      .   S
    C0     O142      0.96209      .   S
    C28    O143      0.68564      .   S
    C66    O143      0.68564      .   S
    C24    O144      0.59477      .   S
    C56    O144      0.59477      .   S
    C66    O145      1.06942      .   S
    C0     O145      1.06942      .   S
    C66    O146      0.65235      .   S
    C31    O146      0.65235      .   S
    C0     O147      1.00504  1_655   S
    C40    O147      1.00504      .   S
