# CIF file generated by openbabel 2.4.90, see http://openbabel.sf.net
data_I
_chemical_name_common ''
_cell_length_a 6.608
_cell_length_b 17.299
_cell_length_c 18.381
_cell_angle_alpha 89.998
_cell_angle_beta 89.996
_cell_angle_gamma 81.79
_space_group_name_H-M_alt 'P 1'
_space_group_name_Hall 'P 1'
loop_
    _symmetry_equiv_pos_as_xyz
    x,y,z
loop_
    _atom_site_label
    _atom_site_type_symbol
    _atom_site_fract_x
    _atom_site_fract_y
    _atom_site_fract_z
    _atom_site_occupancy
    H0      H    0.64343   0.77425   0.55721   1.000
    H1      H    0.75048   0.90228   0.55337   1.000
    H2      H    0.17397   0.98835   0.44800   1.000
    H3      H    0.08830   0.85429   0.45639   1.000
    H4      H    0.48390   0.60256   0.40257   1.000
    H5      H    0.81458   0.51777   0.38846   1.000
    H6      H    0.90268   0.54017   0.62091   1.000
    H7      H    0.56690   0.62252   0.62532   1.000
    H8      H    0.59788   0.84282   0.36424   1.000
    H9      H    0.68552   0.62292   0.25153   1.000
    H10     H    0.35512   0.65990   0.18693   1.000
    H11     H    0.26988   0.88086   0.29772   1.000
    H12     H    0.35576   0.72536   0.05736   1.000
    H13     H    0.24930   0.59725   0.05358   1.000
    H14     H    0.82578   0.51147   0.94803   1.000
    H15     H    0.91091   0.64565   0.95637   1.000
    H16     H    0.51605   0.89743   0.90266   1.000
    H17     H    0.18551   0.98240   0.88850   1.000
    H18     H    0.09694   0.96002   0.12095   1.000
    H19     H    0.43266   0.87750   0.12539   1.000
    H20     H    0.40302   0.65723   0.86400   1.000
    H21     H    0.31557   0.87713   0.75127   1.000
    H22     H    0.64592   0.84009   0.68664   1.000
    H23     H    0.73099   0.61915   0.79745   1.000
    H24     H    0.35580   0.22537   0.44265   1.000
    H25     H    0.24933   0.09725   0.44642   1.000
    H26     H    0.82577   0.01147   0.55197   1.000
    H27     H    0.91090   0.14565   0.54363   1.000
    H28     H    0.51603   0.39745   0.59736   1.000
    H29     H    0.18548   0.48242   0.61150   1.000
    H30     H    0.09699   0.45999   0.37906   1.000
    H31     H    0.43272   0.37748   0.37463   1.000
    H32     H    0.40310   0.15723   0.63601   1.000
    H33     H    0.31554   0.37712   0.74873   1.000
    H34     H    0.64586   0.34010   0.81336   1.000
    H35     H    0.73104   0.11916   0.70255   1.000
    H36     H    0.64346   0.27426   0.94278   1.000
    H37     H    0.75052   0.40228   0.94662   1.000
    H38     H    0.17395   0.48834   0.05200   1.000
    H39     H    0.08829   0.35428   0.04360   1.000
    H40     H    0.48388   0.10258   0.09742   1.000
    H41     H    0.81454   0.01779   0.11153   1.000
    H42     H    0.90274   0.04015   0.87908   1.000
    H43     H    0.56696   0.12250   0.87466   1.000
    H44     H    0.59794   0.34282   0.13575   1.000
    H45     H    0.68547   0.12291   0.24847   1.000
    H46     H    0.35506   0.15991   0.31307   1.000
    H47     H    0.26993   0.38087   0.20228   1.000
    C48     C    0.54030   0.82281   0.53404   1.000
    C49     C    0.60061   0.89653   0.53131   1.000
    C50     C    0.47084   0.95989   0.50141   1.000
    C51     C    0.28265   0.94348   0.47379   1.000
    C52     C    0.23202   0.86851   0.47833   1.000
    C53     C    0.58463   0.58837   0.44908   1.000
    C54     C    0.77091   0.54062   0.44214   1.000
    C55     C    0.89751   0.52361   0.50311   1.000
    C56     C    0.81930   0.55293   0.57038   1.000
    C57     C    0.63112   0.59989   0.57368   1.000
    C58     C    0.85421   0.70565   0.35158   1.000
    C59     C    0.66327   0.73024   0.31248   1.000
    C60     C    0.54360   0.80274   0.32555   1.000
    C61     C    0.59395   0.67949   0.26132   1.000
    C62     C    0.10395   0.79731   0.19588   1.000
    C63     C    0.29176   0.77341   0.23709   1.000
    C64     C    0.41058   0.70054   0.22470   1.000
    C65     C    0.36081   0.82406   0.28837   1.000
    C66     C    0.45900   0.67685   0.03414   1.000
    C67     C    0.39903   0.60309   0.03145   1.000
    C68     C    0.52892   0.53979   0.00150   1.000
    C69     C    0.71700   0.55630   0.97384   1.000
    C70     C    0.76733   0.63132   0.97834   1.000
    C71     C    0.41516   0.91167   0.94912   1.000
    C72     C    0.22908   0.95949   0.94216   1.000
    C73     C    0.10248   0.97645   0.00314   1.000
    C74     C    0.18040   0.94718   0.07045   1.000
    C75     C    0.36841   0.90017   0.07377   1.000
    C76     C    0.14691   0.79444   0.85138   1.000
    C77     C    0.33775   0.76982   0.81223   1.000
    C78     C    0.45734   0.69730   0.82529   1.000
    C79     C    0.40709   0.82054   0.76105   1.000
    C80     C    0.89703   0.70268   0.69561   1.000
    C81     C    0.70919   0.72659   0.73680   1.000
    C82     C    0.59041   0.79946   0.72441   1.000
    C83     C    0.64010   0.67595   0.78810   1.000
    C84     C    0.45903   0.17686   0.46587   1.000
    C85     C    0.39906   0.10309   0.46855   1.000
    C86     C    0.52893   0.03979   0.49850   1.000
    C87     C    0.71699   0.05630   0.52617   1.000
    C88     C    0.76732   0.13132   0.52166   1.000
    C89     C    0.41515   0.41169   0.55089   1.000
    C90     C    0.22907   0.45951   0.55784   1.000
    C91     C    0.10250   0.47645   0.49687   1.000
    C92     C    0.18044   0.44717   0.42956   1.000
    C93     C    0.36845   0.40015   0.42624   1.000
    C94     C    0.14693   0.29443   0.64862   1.000
    C95     C    0.33777   0.26982   0.68777   1.000
    C96     C    0.45738   0.19730   0.67471   1.000
    C97     C    0.40707   0.32054   0.73894   1.000
    C98     C    0.89703   0.20269   0.80439   1.000
    C99     C    0.70920   0.22660   0.76320   1.000
    C100    C    0.59039   0.29947   0.77559   1.000
    C101    C    0.64013   0.17596   0.71190   1.000
    C102    C    0.54033   0.32282   0.96595   1.000
    C103    C    0.60064   0.39653   0.96869   1.000
    C104    C    0.47086   0.45989   0.99859   1.000
    C105    C    0.28265   0.44348   0.02621   1.000
    C106    C    0.23201   0.36851   0.02166   1.000
    C107    C    0.58462   0.08839   0.05090   1.000
    C108    C    0.77089   0.04063   0.05785   1.000
    C109    C    0.89752   0.02361   0.99688   1.000
    C110    C    0.81934   0.05292   0.92961   1.000
    C111    C    0.63116   0.09988   0.92630   1.000
    C112    C    0.85422   0.20564   0.14841   1.000
    C113    C    0.66328   0.23023   0.18752   1.000
    C114    C    0.54363   0.30274   0.17445   1.000
    C115    C    0.59392   0.17949   0.23868   1.000
    C116    C    0.10395   0.29732   0.30412   1.000
    C117    C    0.29176   0.27342   0.26291   1.000
    C118    C    0.41055   0.20055   0.27530   1.000
    C119    C    0.36084   0.32407   0.21163   1.000
    N120    N    0.35746   0.80866   0.50893   1.000
    N121    N    0.51569   0.61921   0.51370   1.000
    N122    N    0.08906   0.69303   0.43007   1.000
    N123    N    0.13858   0.63676   0.38011   1.000
    N124    N    0.99219   0.64366   0.33047   1.000
    N125    N    0.91188   0.73790   0.41374   1.000
    N126    N    0.87799   0.80667   0.11299   1.000
    N127    N    0.81940   0.86397   0.16126   1.000
    N128    N    0.96011   0.85893   0.21371   1.000
    N129    N    0.05688   0.76369   0.13300   1.000
    N130    N    0.64166   0.69111   0.00895   1.000
    N131    N    0.48364   0.88081   0.01377   1.000
    N132    N    0.90949   0.80686   0.93015   1.000
    N133    N    0.86040   0.86324   0.88027   1.000
    N134    N    0.00869   0.85635   0.83025   1.000
    N135    N    0.08961   0.76228   0.91364   1.000
    N136    N    0.12083   0.69327   0.61315   1.000
    N137    N    0.17980   0.63610   0.66151   1.000
    N138    N    0.03928   0.64120   0.71404   1.000
    N139    N    0.94447   0.73641   0.63282   1.000
    N140    N    0.64167   0.19111   0.49106   1.000
    N141    N    0.48366   0.38081   0.48625   1.000
    N142    N    0.90952   0.30685   0.56986   1.000
    N143    N    0.86041   0.36323   0.61974   1.000
    N144    N    0.00870   0.35634   0.66975   1.000
    N145    N    0.08965   0.26227   0.58636   1.000
    N146    N    0.12082   0.19329   0.88684   1.000
    N147    N    0.17980   0.13612   0.83848   1.000
    N148    N    0.03929   0.14122   0.78596   1.000
    N149    N    0.94447   0.23642   0.86717   1.000
    N150    N    0.35748   0.30866   0.99106   1.000
    N151    N    0.51571   0.11921   0.98627   1.000
    N152    N    0.08909   0.19302   0.06992   1.000
    N153    N    0.13859   0.13675   0.11988   1.000
    N154    N    0.99219   0.14365   0.16952   1.000
    N155    N    0.91191   0.23789   0.08626   1.000
    N156    N    0.87798   0.30668   0.38701   1.000
    N157    N    0.81940   0.36399   0.33875   1.000
    N158    N    0.96011   0.35895   0.28629   1.000
    N159    N    0.05687   0.26371   0.36701   1.000
loop_
    _geom_bond_atom_site_label_1
    _geom_bond_atom_site_label_2
    _geom_bond_distance
    _geom_bond_site_symmetry_2
    _ccdc_geom_bond_type
    C68    C67       1.40368      .   S
    C68    C69       1.40927  1_554   S
    C68    C104      1.48723  1_554   S
    C73    C74       1.40630      .   S
    C73    C72       1.40420  1_554   S
    C73    C109      1.48244  1_464   S
    N130   C66       1.34798      .   S
    N130   C70       1.35290  1_554   S
    N131   C75       1.35478      .   S
    N131   C71       1.35380  1_554   S
    C106   C105      1.38739      .   S
    C106   H39       1.09172      .   S
    C106   N150      1.35289  1_554   S
    C105   H38       1.08802      .   S
    C105   C104      1.40924  1_554   S
    C67    C66       1.39003      .   S
    C67    H13       1.08779      .   S
    C66    H12       1.09002      .   S
    C107   C108      1.38689      .   S
    C107   H40       1.08986      .   S
    C107   N151      1.35405  1_554   S
    C108   H41       1.08641      .   S
    C108   C109      1.40442  1_554   S
    N152   N155      1.34311  1_455   S
    N152   N153      1.34423      .   S
    C74    C75       1.38572      .   S
    C74    H18       1.08636      .   S
    C75    H19       1.08933      .   S
    N155   C112      1.35006      .   S
    N126   N129      1.35437  1_655   S
    N126   N127      1.34539      .   S
    N153   N154      1.32270  1_455   S
    N129   C62       1.35011      .   S
    H44    C114      1.08928      .   S
    C112   N154      1.36111      .   S
    C112   C113      1.46161      .   S
    N127   N128      1.33364      .   S
    C114   C113      1.40455      .   S
    C114   C119      1.39093      .   S
    H10    C64       1.08822      .   S
    C113   C115      1.40694      .   S
    C62    N128      1.36306  1_455   S
    C62    C63       1.46228      .   S
    H47    C119      1.08969      .   S
    C119   C117      1.40661      .   S
    C64    C63       1.40527      .   S
    C64    C61       1.38848      .   S
    C63    C65       1.40662      .   S
    C115   H45       1.08959      .   S
    C115   C118      1.38848      .   S
    H9     C61       1.08958      .   S
    C61    C59       1.40695      .   S
    C117   C118      1.40526      .   S
    C117   C116      1.46226      .   S
    C118   H46       1.08822      .   S
    N158   C116      1.36304  1_655   S
    N158   N157      1.33366      .   S
    C65    H11       1.08969      .   S
    C65    C60       1.39094      .   S
    C116   N159      1.35011      .   S
    C59    C60       1.40457      .   S
    C59    C58       1.46163      .   S
    C60    H8        1.08928      .   S
    N124   C58       1.36111      .   S
    N124   N123      1.32271  1_655   S
    N157   N156      1.34540      .   S
    C58    N125      1.35007      .   S
    N159   N156      1.35433  1_455   S
    H31    C93       1.08934      .   S
    H30    C92       1.08637      .   S
    N123   N122      1.34423      .   S
    H5     C54       1.08640      .   S
    H4     C53       1.08985      .   S
    N125   N122      1.34312  1_655   S
    C93    C92       1.38571      .   S
    C93    N141      1.35476      .   S
    C92    C91       1.40631      .   S
    C54    C53       1.38690      .   S
    C54    C55       1.40438      .   S
    H24    C84       1.09002      .   S
    H25    C85       1.08778      .   S
    H2     C51       1.08803      .   S
    C53    N121      1.35406      .   S
    H3     C52       1.09172      .   S
    C84    C85       1.39004      .   S
    C84    N140      1.34798      .   S
    C85    C86       1.40368      .   S
    C51    C52       1.38738      .   S
    C51    C50       1.40917      .   S
    C52    N120      1.35285      .   S
    N141   C89       1.35381      .   S
    N140   C88       1.35288      .   S
    C91    C55       1.48256  1_455   S
    C91    C90       1.40415      .   S
    C86    C50       1.48734  1_545   S
    C86    C87       1.40921      .   S
    C50    C49       1.40369      .   S
    C55    C56       1.40654      .   S
    N120   C48       1.34808      .   S
    N121   C57       1.35505      .   S
    C88    C87       1.38749      .   S
    C88    H27       1.09175      .   S
    C87    H26       1.08806      .   S
    C49    C48       1.39023      .   S
    C49    H1        1.08783      .   S
    C48    H0        1.08997      .   S
    C89    C90       1.38640      .   S
    C89    H28       1.08986      .   S
    C90    H29       1.08635      .   S
    N142   N145      1.35696  1_655   S
    N142   N143      1.34420      .   S
    C56    C57       1.38618      .   S
    C56    H6        1.08643      .   S
    C57    H7        1.08937      .   S
    N145   C94       1.35000      .   S
    N136   N139      1.34061  1_455   S
    N136   N137      1.34539      .   S
    N143   N144      1.33648  1_655   S
    N139   C80       1.35014      .   S
    H32    C96       1.08931      .   S
    C94    N144      1.36116      .   S
    C94    C95       1.46159      .   S
    N137   N138      1.33365      .   S
    C96    C95       1.40456      .   S
    C96    C101      1.39094      .   S
    H22    C82       1.08821      .   S
    C95    C97       1.40688      .   S
    C80    N138      1.35793  1_655   S
    C80    C81       1.46229      .   S
    H35    C101      1.08970      .   S
    C101   C99       1.40666      .   S
    C82    C81       1.40526      .   S
    C82    C79       1.38846      .   S
    C81    C83       1.40665      .   S
    C97    H33       1.08959      .   S
    C97    C100      1.38847      .   S
    H21    C79       1.08960      .   S
    C79    C77       1.40688      .   S
    C99    C100      1.40528      .   S
    C99    C98       1.46230      .   S
    C100   H34       1.08820      .   S
    N148   C98       1.35792  1_455   S
    N148   N147      1.33364      .   S
    C83    H23       1.08970      .   S
    C83    C78       1.39094      .   S
    C98    N149      1.35014      .   S
    C77    C78       1.40455      .   S
    C77    C76       1.46156      .   S
    C78    H20       1.08929      .   S
    N134   C76       1.36115      .   S
    N134   N133      1.33647  1_455   S
    N147   N146      1.34538      .   S
    C76    N135      1.35000      .   S
    N149   N146      1.34059  1_655   S
    H43    C111      1.08937      .   S
    H42    C110      1.08644      .   S
    N133   N132      1.34422      .   S
    H17    C72       1.08637      .   S
    H16    C71       1.08986      .   S
    N135   N132      1.35693  1_455   S
    C111   C110      1.38618      .   S
    C111   N151      1.35504      .   S
    C110   C109      1.40653      .   S
    C72    C71       1.38638      .   S
    H36    C102      1.08998      .   S
    H37    C103      1.08782      .   S
    H14    C69       1.08807      .   S
    H15    C70       1.09174      .   S
    C102   C103      1.39022      .   S
    C102   N150      1.34809      .   S
    C103   C104      1.40370      .   S
    C69    C70       1.38751      .   S
