# CIF file generated by openbabel 2.4.90, see http://openbabel.sf.net
data_I
_chemical_name_common ''
_cell_length_a 6.254
_cell_length_b 15.845
_cell_length_c 16.644
_cell_angle_alpha 104.357
_cell_angle_beta 90.128
_cell_angle_gamma 101.256
_space_group_name_H-M_alt 'P 1'
_space_group_name_Hall 'P 1'
loop_
    _symmetry_equiv_pos_as_xyz
    x,y,z
loop_
    _atom_site_label
    _atom_site_type_symbol
    _atom_site_fract_x
    _atom_site_fract_y
    _atom_site_fract_z
    _atom_site_occupancy
    H0      H    0.98090   0.18701   0.37607   1.000
    H1      H    0.85502   0.32219   0.44869   1.000
    H2      H    0.47256   0.48182   0.41169   1.000
    H3      H    0.59720   0.34372   0.33923   1.000
    H4      H    0.21533   0.55572   0.48109   1.000
    H5      H    0.82730   0.10775   0.23012   1.000
    H6      H    0.11173   0.10812   0.12863   1.000
    H7      H    0.66967   0.89151   0.95921   1.000
    H8      H    0.40859   0.89832   0.07004   1.000
    H9      H    0.79295   0.81293   0.12370   1.000
    H10     H    0.53188   0.67787   0.05151   1.000
    H11     H    0.99155   0.51798   0.08829   1.000
    H12     H    0.25463   0.65599   0.16013   1.000
    H13     H    0.65983   0.44417   0.01919   1.000
    H14     H    0.72020   0.89169   0.26956   1.000
    H15     H    0.00457   0.89163   0.37161   1.000
    H16     H    0.77679   0.10827   0.54021   1.000
    H17     H    0.50841   0.10103   0.42889   1.000
    H18     H    0.01906   0.81298   0.62391   1.000
    H19     H    0.14493   0.67780   0.55129   1.000
    H20     H    0.52741   0.51817   0.58830   1.000
    H21     H    0.40276   0.65627   0.66075   1.000
    H22     H    0.78463   0.44427   0.51890   1.000
    H23     H    0.17265   0.89225   0.76986   1.000
    H24     H    0.88823   0.89187   0.87134   1.000
    H25     H    0.33029   0.10847   0.04077   1.000
    H26     H    0.59136   0.10167   0.92993   1.000
    H27     H    0.20701   0.18706   0.87627   1.000
    H28     H    0.46809   0.32212   0.94847   1.000
    H29     H    0.00842   0.48201   0.91169   1.000
    H30     H    0.74534   0.34400   0.83985   1.000
    H31     H    0.34015   0.55582   0.98078   1.000
    H32     H    0.27982   0.10832   0.73040   1.000
    H33     H    0.99544   0.10839   0.62836   1.000
    H34     H    0.22309   0.89170   0.45978   1.000
    H35     H    0.49149   0.89894   0.57109   1.000
    C36     C    0.29868   0.25648   0.35401   1.000
    C37     C    0.08910   0.25168   0.38503   1.000
    C38     C    0.01930   0.32826   0.42613   1.000
    C39     C    0.15617   0.41295   0.43736   1.000
    C40     C    0.36487   0.41700   0.40443   1.000
    C41     C    0.43544   0.34032   0.36395   1.000
    C42     C    0.09377   0.49571   0.48057   1.000
    C43     C    0.80094   0.06052   0.16953   1.000
    C44     C    0.95839   0.06051   0.11089   1.000
    C45     C    0.91835   0.00039   0.03228   1.000
    C46     C    0.71518   0.94084   0.01806   1.000
    C47     C    0.56618   0.94412   0.07980   1.000
    C48     C    0.04250   0.74340   0.14544   1.000
    C49     C    0.83696   0.74824   0.11475   1.000
    C50     C    0.69052   0.67169   0.07386   1.000
    C51     C    0.74317   0.58695   0.06266   1.000
    C52     C    0.94835   0.58283   0.09545   1.000
    C53     C    0.09578   0.65949   0.13564   1.000
    C54     C    0.59811   0.50423   0.01950   1.000
    C55     C    0.74064   0.93895   0.33014   1.000
    C56     C    0.89830   0.93919   0.38905   1.000
    C57     C    0.91780   0.99947   0.46757   1.000
    C58     C    0.77342   0.05889   0.48146   1.000
    C59     C    0.62100   0.05540   0.41947   1.000
    C60     C    0.70128   0.74351   0.64598   1.000
    C61     C    0.91086   0.74831   0.61495   1.000
    C62     C    0.98066   0.67173   0.57386   1.000
    C63     C    0.84379   0.58704   0.56263   1.000
    C64     C    0.63509   0.58298   0.59555   1.000
    C65     C    0.56452   0.65966   0.63604   1.000
    C66     C    0.90620   0.50428   0.51943   1.000
    C67     C    0.19903   0.93946   0.83045   1.000
    C68     C    0.04156   0.93949   0.88908   1.000
    C69     C    0.08160   0.99962   0.96770   1.000
    C70     C    0.28477   0.05915   0.98191   1.000
    C71     C    0.43378   0.05587   0.92019   1.000
    C72     C    0.95748   0.25660   0.85454   1.000
    C73     C    0.16302   0.25175   0.88521   1.000
    C74     C    0.30945   0.32830   0.92611   1.000
    C75     C    0.25681   0.41304   0.93731   1.000
    C76     C    0.05161   0.41716   0.90453   1.000
    C77     C    0.90420   0.34050   0.86434   1.000
    C78     C    0.40186   0.49576   0.98047   1.000
    C79     C    0.25933   0.06105   0.66984   1.000
    C80     C    0.10169   0.06082   0.61092   1.000
    C81     C    0.08213   0.00054   0.53241   1.000
    C82     C    0.22650   0.94108   0.51853   1.000
    C83     C    0.37892   0.94458   0.58052   1.000
    N84     N    0.60593   0.00354   0.15457   1.000
    N85     N    0.60209   0.99590   0.34477   1.000
    N86     N    0.39402   0.99646   0.84540   1.000
    N87     N    0.39788   0.00409   0.65521   1.000
loop_
    _geom_bond_atom_site_label_1
    _geom_bond_atom_site_label_2
    _geom_bond_distance
    _geom_bond_site_symmetry_2
    _ccdc_geom_bond_type
    C46    C45       1.40740  1_565   S
    C46    C47       1.38692      .   S
    C46    H7        1.08786  1_554   S
    H13    C54       1.09351      .   S
    C54    C51       1.45699      .   S
    C54    C78       1.35469  1_554   S
    C45    C44       1.40332      .   S
    C45    C69       1.48368  1_644   S
    H25    C70       1.08787  1_554   S
    H10    C50       1.08936      .   S
    C51    C50       1.41236      .   S
    C51    C52       1.41282      .   S
    H8     C47       1.08900      .   S
    C50    C49       1.38831      .   S
    C47    N84       1.35032  1_565   S
    H11    C52       1.09130      .   S
    C52    C53       1.38922  1_655   S
    C44    H6        1.08711  1_655   S
    C44    C43       1.38792      .   S
    C49    H9        1.08769      .   S
    C49    C48       1.40502  1_655   S
    C53    C48       1.40389      .   S
    C53    H12       1.08954      .   S
    N84    C43       1.34979      .   S
    C43    H5        1.08668      .   S
    H14    C55       1.08683      .   S
    C55    N85       1.34973      .   S
    C55    C56       1.38790      .   S
    H3     C41       1.08953      .   S
    N85    C59       1.35022  1_565   S
    C36    C41       1.40384      .   S
    C36    C37       1.40499      .   S
    C41    C40       1.38913      .   S
    H15    C56       1.08711  1_455   S
    H0     C37       1.08777  1_655   S
    C37    C38       1.38830      .   S
    C56    C57       1.40350      .   S
    C40    H2        1.09130      .   S
    C40    C39       1.41275      .   S
    C59    H17       1.08912      .   S
    C59    C58       1.38665      .   S
    C38    C39       1.41241      .   S
    C38    H1        1.08947  1_455   S
    C39    C42       1.45687      .   S
    H34    C82       1.08763      .   S
    C57    C58       1.40720  1_565   S
    C57    C81       1.48336  1_665   S
    C42    H4        1.09350      .   S
    C42    C66       1.35451  1_455   S
    C58    H16       1.08762      .   S
    C82    C81       1.40753  1_565   S
    C82    C83       1.38668      .   S
    H22    C66       1.09351      .   S
    C66    C63       1.45687      .   S
    C81    C80       1.40334      .   S
    H19    C62       1.08944  1_455   S
    C63    C62       1.41241      .   S
    C63    C64       1.41275      .   S
    H35    C83       1.08910      .   S
    C62    C61       1.38829      .   S
    C83    N87       1.35021  1_565   S
    H20    C64       1.09128      .   S
    C64    C65       1.38914      .   S
    C80    H33       1.08713  1_455   S
    C80    C79       1.38788      .   S
    C61    H18       1.08778  1_655   S
    C61    C60       1.40498      .   S
    C65    C60       1.40382      .   S
    C65    H21       1.08954      .   S
    N87    C79       1.34976      .   S
    C79    H32       1.08684      .   S
    H23    C67       1.08669      .   S
    C67    N86       1.34979      .   S
    C67    C68       1.38793      .   S
    H30    C77       1.08954      .   S
    N86    C71       1.35033  1_565   S
    C72    C77       1.40389      .   S
    C72    C73       1.40499  1_655   S
    C77    C76       1.38920  1_655   S
    H24    C68       1.08712  1_655   S
    H27    C73       1.08769      .   S
    C73    C74       1.38831      .   S
    C68    C69       1.40347      .   S
    C76    H29       1.09129      .   S
    C76    C75       1.41282      .   S
    C71    H26       1.08899      .   S
    C71    C70       1.38690      .   S
    C74    C75       1.41237      .   S
    C74    H28       1.08936      .   S
    C75    C78       1.45698      .   S
    C69    C70       1.40727  1_565   S
    C78    H31       1.09352      .   S
