# CIF file generated by openbabel 2.4.90, see http://openbabel.sf.net
data_I
_chemical_name_common ''
_cell_length_a 6.254
_cell_length_b 15.845
_cell_length_c 16.644
_cell_angle_alpha 104.357
_cell_angle_beta 90.128
_cell_angle_gamma 101.256
_space_group_name_H-M_alt 'P 1'
_space_group_name_Hall 'P 1'
loop_
    _symmetry_equiv_pos_as_xyz
    x,y,z
loop_
    _atom_site_label
    _atom_site_type_symbol
    _atom_site_fract_x
    _atom_site_fract_y
    _atom_site_fract_z
    _atom_site_occupancy
    Zn0     Zn   0.61072   0.00015   0.75032   1.000
    Zn1     Zn   0.38924   0.99986   0.24966   1.000
    C2      C    0.38062   0.17484   0.31197   1.000
    C3      C    0.20636   0.82505   0.18693   1.000
    C4      C    0.61934   0.82515   0.68800   1.000
    C5      C    0.79360   0.17494   0.81306   1.000
    O6      O    0.24042   0.09910   0.29883   1.000
    O7      O    0.57496   0.18076   0.29235   1.000
    O8      O    0.14041   0.90068   0.20125   1.000
    O9      O    0.39647   0.81923   0.20487   1.000
    O10     O    0.75955   0.90088   0.70115   1.000
    O11     O    0.42500   0.81922   0.70763   1.000
    O12     O    0.85956   0.09931   0.79873   1.000
    O13     O    0.60349   0.18076   0.79512   1.000
    Ts14    Ts   0.53849   0.99892   0.78201   1.000
    Ts15    Ts   0.53977   0.00146   0.71861   1.000
    Ts16    Ts   0.46147   0.00109   0.21797   1.000
    Ts17    Ts   0.46019   0.99854   0.28137   1.000
    Og18    Og   0.35331   0.20205   0.32598   1.000
    Og19    Og   0.15174   0.79783   0.17310   1.000
    Og20    Og   0.64665   0.79794   0.67400   1.000
    Og21    Og   0.84823   0.20216   0.82688   1.000
loop_
    _geom_bond_atom_site_label_1
    _geom_bond_atom_site_label_2
    _geom_bond_distance
    _geom_bond_site_symmetry_2
    _ccdc_geom_bond_type
    C3     O8        1.30962      .   S
    C3     O9        1.25143      .   S
    O8     Zn1       1.98804      .   S
    Zn1    O6        1.98630  1_565   S
    O7     C2        1.25105      .   S
    O6     C2        1.30952      .   S
    C4     O10       1.30952      .   S
    C4     O11       1.25105      .   S
    O10    Zn0       1.98654  1_565   S
    Zn0    O12       1.98794      .   S
    O13    C5        1.25144      .   S
    O12    C5        1.30962      .   S
    Zn0    Ts14      0.69675  1_545   S
    Zn0    Ts15      0.69552      .   S
    Zn1    Ts16      0.69676  1_565   S
    Zn1    Ts17      0.69553      .   S
    C2     Og18      0.49855      .   S
    C3     Og19      0.49857      .   S
    C4     Og20      0.49855      .   S
    C5     Og21      0.49857      .   S
