# CIF file generated by openbabel 2.4.90, see http://openbabel.sf.net
data_I
_chemical_name_common ''
_cell_length_a 20.216
_cell_length_b 23.15
_cell_length_c 14.866
_cell_angle_alpha 91.111
_cell_angle_beta 89.98
_cell_angle_gamma 89.953
_space_group_name_H-M_alt 'P 1'
_space_group_name_Hall 'P 1'
loop_
    _symmetry_equiv_pos_as_xyz
    x,y,z
loop_
    _atom_site_label
    _atom_site_type_symbol
    _atom_site_fract_x
    _atom_site_fract_y
    _atom_site_fract_z
    _atom_site_occupancy
    N0      N    0.35890   0.28888   0.05195   1.000
    N1      N    0.01188   0.26055   0.20766   1.000
    N2      N    0.35890   0.78890   0.05192   1.000
    N3      N    0.73819   0.01055   0.70757   1.000
    N4      N    0.51185   0.26055   0.20767   1.000
    N5      N    0.01187   0.76056   0.20767   1.000
    N6      N    0.31672   0.27443   0.31855   1.000
    N7      N    0.51187   0.76056   0.20766   1.000
    N8      N    0.86376   0.96484   0.05753   1.000
    N9      N    0.36377   0.46484   0.05752   1.000
    N10     N    0.14110   0.71114   0.94796   1.000
    N11     N    0.18326   0.72558   0.68137   1.000
    N12     N    0.86376   0.46484   0.05752   1.000
    N13     N    0.98809   0.73947   0.79212   1.000
    N14     N    0.31672   0.77444   0.31854   1.000
    N15     N    0.10885   0.46107   0.44856   1.000
    N16     N    0.05027   0.87134   0.96755   1.000
    N17     N    0.60884   0.46107   0.44855   1.000
    N18     N    0.44971   0.12868   0.03240   1.000
    N19     N    0.64108   0.21112   0.94804   1.000
    N20     N    0.91974   0.41206   0.32752   1.000
    N21     N    0.08025   0.08796   0.67243   1.000
    N22     N    0.66977   0.33804   0.17255   1.000
    N23     N    0.43333   0.52446   0.81853   1.000
    N24     N    0.19965   0.62139   0.46766   1.000
    N25     N    0.69963   0.12138   0.46766   1.000
    N26     N    0.69964   0.62139   0.46765   1.000
    N27     N    0.55029   0.87134   0.96757   1.000
    N28     N    0.63622   0.53518   0.94243   1.000
    N29     N    0.16978   0.33804   0.17252   1.000
    N30     N    0.94969   0.12868   0.03237   1.000
    N31     N    0.58024   0.58797   0.67244   1.000
    N32     N    0.05029   0.37133   0.96758   1.000
    N33     N    0.80033   0.37863   0.53230   1.000
    N34     N    0.38620   0.71491   0.55754   1.000
    N35     N    0.08025   0.58796   0.67243   1.000
    N36     N    0.93331   0.02446   0.81854   1.000
    N37     N    0.41975   0.41207   0.32751   1.000
    N38     N    0.81672   0.77444   0.31856   1.000
    N39     N    0.60884   0.96109   0.44853   1.000
    N40     N    0.30035   0.37863   0.53228   1.000
    N41     N    0.66978   0.83805   0.17253   1.000
    N42     N    0.33021   0.16197   0.82741   1.000
    N43     N    0.11380   0.78511   0.44240   1.000
    N44     N    0.43335   0.02445   0.81851   1.000
    N45     N    0.91974   0.91207   0.32752   1.000
    N46     N    0.89113   0.03893   0.55140   1.000
    N47     N    0.89114   0.53894   0.55139   1.000
    N48     N    0.14109   0.21113   0.94799   1.000
    N49     N    0.41975   0.91207   0.32750   1.000
    N50     N    0.48810   0.23946   0.79229   1.000
    N51     N    0.61379   0.28511   0.44241   1.000
    N52     N    0.33022   0.66198   0.82741   1.000
    N53     N    0.64109   0.71113   0.94802   1.000
    N54     N    0.36377   0.96485   0.05751   1.000
    N55     N    0.94969   0.62869   0.03236   1.000
    N56     N    0.06666   0.97557   0.18143   1.000
    N57     N    0.13622   0.03517   0.94242   1.000
    N58     N    0.30036   0.87864   0.53228   1.000
    N59     N    0.80034   0.87864   0.53229   1.000
    N60     N    0.39114   0.03896   0.55132   1.000
    N61     N    0.39115   0.53895   0.55138   1.000
    N62     N    0.38619   0.21491   0.55753   1.000
    N63     N    0.44971   0.62869   0.03237   1.000
    N64     N    0.76179   0.48947   0.29238   1.000
    N65     N    0.26180   0.98947   0.29237   1.000
    N66     N    0.26177   0.48947   0.29235   1.000
    N67     N    0.76177   0.98947   0.29237   1.000
    N68     N    0.16978   0.83805   0.17253   1.000
    N69     N    0.11380   0.28511   0.44242   1.000
    N70     N    0.06666   0.47556   0.18141   1.000
    N71     N    0.81671   0.27443   0.31855   1.000
    N72     N    0.23818   0.51055   0.70756   1.000
    N73     N    0.23820   0.01055   0.70756   1.000
    N74     N    0.73819   0.51055   0.70758   1.000
    N75     N    0.56667   0.97556   0.18140   1.000
    N76     N    0.93333   0.52446   0.81853   1.000
    N77     N    0.10885   0.96108   0.44856   1.000
    N78     N    0.19964   0.12138   0.46766   1.000
    N79     N    0.63621   0.03517   0.94241   1.000
    N80     N    0.18328   0.22558   0.68141   1.000
    N81     N    0.98808   0.23946   0.79231   1.000
    N82     N    0.61379   0.78512   0.44241   1.000
    N83     N    0.68325   0.22557   0.68139   1.000
    N84     N    0.56666   0.47556   0.18141   1.000
    N85     N    0.68326   0.72559   0.68140   1.000
    N86     N    0.83020   0.16197   0.82741   1.000
    N87     N    0.83021   0.66198   0.82741   1.000
    N88     N    0.55028   0.37133   0.96758   1.000
    N89     N    0.85889   0.78888   0.05200   1.000
    N90     N    0.85888   0.28888   0.05197   1.000
    N91     N    0.88618   0.21490   0.55754   1.000
    N92     N    0.48812   0.73947   0.79229   1.000
    N93     N    0.88619   0.71491   0.55754   1.000
    N94     N    0.58024   0.08796   0.67243   1.000
    N95     N    0.13623   0.53518   0.94242   1.000
    Zr96    Zr   0.49999   0.50001   0.00000   1.000
    O97     O    0.47667   0.50482   0.93964   1.000
    O98     O    0.48044   0.54150   0.01259   1.000
    O99     O    0.54358   0.51527   0.97776   1.000
    O100    O    0.52332   0.49520   0.06034   1.000
    O101    O    0.45641   0.48474   0.02222   1.000
    O102    O    0.51955   0.45852   0.98739   1.000
    Zr103   Zr   0.46404   0.37745   0.12962   1.000
    O104    O    0.43394   0.40814   0.10323   1.000
    O105    O    0.49967   0.40791   0.15028   1.000
    O106    O    0.42671   0.34890   0.10796   1.000
    O107    O    0.48179   0.34045   0.15968   1.000
    O108    O    0.49180   0.37158   0.07544   1.000
    O109    O    0.44561   0.38895   0.19363   1.000
    Zr110   Zr   0.69130   0.62022   0.80875   1.000
    O111    O    0.70909   0.58593   0.77161   1.000
    O112    O    0.67684   0.59085   0.85384   1.000
    O113    O    0.69114   0.65340   0.76223   1.000
    O114    O    0.65148   0.60961   0.76783   1.000
    O115    O    0.73642   0.63532   0.82037   1.000
    O116    O    0.67038   0.64965   0.85352   1.000
    Zr117   Zr   0.00000   0.25000   0.00000   1.000
    O118    O    0.01428   0.29193   0.99443   1.000
    O119    O    0.95179   0.26095   0.01306   1.000
    O120    O    0.98571   0.20808   0.00555   1.000
    O121    O    0.99701   0.24987   0.93075   1.000
    O122    O    0.00298   0.25013   0.06924   1.000
    O123    O    0.04821   0.23905   0.98693   1.000
    Zr124   Zr   0.69130   0.12021   0.80875   1.000
    O125    O    0.67037   0.14964   0.85352   1.000
    O126    O    0.69113   0.15339   0.76223   1.000
    O127    O    0.73641   0.13531   0.82037   1.000
    O128    O    0.65147   0.10960   0.76783   1.000
    O129    O    0.70909   0.08593   0.77161   1.000
    O130    O    0.67684   0.09084   0.85383   1.000
    Zr131   Zr   0.05870   0.87021   0.30885   1.000
    O132    O    0.07316   0.84082   0.35389   1.000
    O133    O    0.09853   0.85963   0.26793   1.000
    O134    O    0.04095   0.83593   0.27170   1.000
    O135    O    0.07959   0.89959   0.35382   1.000
    O136    O    0.05883   0.90339   0.26230   1.000
    O137    O    0.01356   0.88534   0.32047   1.000
    Zr138   Zr   0.44130   0.62982   0.69111   1.000
    O139    O    0.48643   0.61469   0.67949   1.000
    O140    O    0.42684   0.65921   0.64606   1.000
    O141    O    0.40147   0.64040   0.73202   1.000
    O142    O    0.44116   0.59664   0.73765   1.000
    O143    O    0.42041   0.60044   0.64614   1.000
    O144    O    0.45904   0.66410   0.72826   1.000
    Zr145   Zr   0.94129   0.62982   0.69111   1.000
    O146    O    0.95903   0.66410   0.72822   1.000
    O147    O    0.98643   0.61468   0.67948   1.000
    O148    O    0.92040   0.60043   0.64614   1.000
    O149    O    0.94115   0.59664   0.73766   1.000
    O150    O    0.90146   0.64040   0.73202   1.000
    O151    O    0.92683   0.65921   0.64606   1.000
    Zr152   Zr   0.25000   0.25001   0.49998   1.000
    O153    O    0.27334   0.25481   0.43963   1.000
    O154    O    0.22665   0.24520   0.56033   1.000
    O155    O    0.26957   0.29147   0.51256   1.000
    O156    O    0.20642   0.26525   0.47774   1.000
    O157    O    0.23043   0.20854   0.48739   1.000
    O158    O    0.29358   0.23477   0.52221   1.000
    Zr159   Zr   0.00001   0.50001   0.99999   1.000
    O160    O    0.02332   0.49520   0.06034   1.000
    O161    O    0.95641   0.48474   0.02222   1.000
    O162    O    0.01956   0.45852   0.98738   1.000
    O163    O    0.97668   0.50482   0.93963   1.000
    O164    O    0.98044   0.54150   0.01258   1.000
    O165    O    0.04359   0.51528   0.97775   1.000
    Zr166   Zr   0.53594   0.12256   0.87034   1.000
    O167    O    0.50818   0.12843   0.92452   1.000
    O168    O    0.57328   0.15111   0.89202   1.000
    O169    O    0.56604   0.09187   0.89671   1.000
    O170    O    0.50031   0.09210   0.84967   1.000
    O171    O    0.51818   0.15956   0.84028   1.000
    O172    O    0.55437   0.11107   0.80632   1.000
    Zr173   Zr   0.74999   0.75001   0.49998   1.000
    O174    O    0.73042   0.70855   0.48739   1.000
    O175    O    0.76956   0.79148   0.51256   1.000
    O176    O    0.77334   0.75482   0.43963   1.000
    O177    O    0.72665   0.74521   0.56033   1.000
    O178    O    0.79357   0.73477   0.52222   1.000
    O179    O    0.70641   0.76526   0.47774   1.000
    Zr180   Zr   0.19131   0.12021   0.80874   1.000
    O181    O    0.17038   0.14964   0.85350   1.000
    O182    O    0.20910   0.08593   0.77160   1.000
    O183    O    0.15148   0.10960   0.76782   1.000
    O184    O    0.23643   0.13531   0.82036   1.000
    O185    O    0.19115   0.15339   0.76222   1.000
    O186    O    0.17685   0.09084   0.85383   1.000
    Zr187   Zr   0.53595   0.62257   0.87034   1.000
    O188    O    0.55438   0.61108   0.80632   1.000
    O189    O    0.50818   0.62843   0.92451   1.000
    O190    O    0.50031   0.59211   0.84967   1.000
    O191    O    0.51819   0.65957   0.84028   1.000
    O192    O    0.56605   0.59188   0.89672   1.000
    O193    O    0.57328   0.65112   0.89201   1.000
    Zr194   Zr   0.46405   0.87746   0.12960   1.000
    O195    O    0.44561   0.88896   0.19361   1.000
    O196    O    0.49968   0.90791   0.15027   1.000
    O197    O    0.42671   0.84891   0.10793   1.000
    O198    O    0.48180   0.84046   0.15966   1.000
    O199    O    0.43394   0.90815   0.10322   1.000
    O200    O    0.49181   0.87159   0.07543   1.000
    Zr201   Zr   0.24999   0.00000   0.49997   1.000
    O202    O    0.25294   0.99987   0.43075   1.000
    O203    O    0.23569   0.04194   0.49444   1.000
    O204    O    0.24705   0.00014   0.56918   1.000
    O205    O    0.29821   0.01097   0.51285   1.000
    O206    O    0.20178   0.98905   0.48708   1.000
    O207    O    0.26430   0.95807   0.50550   1.000
    Zr208   Zr   0.55869   0.87021   0.30884   1.000
    O209    O    0.55883   0.90339   0.26229   1.000
    O210    O    0.51356   0.88535   0.32046   1.000
    O211    O    0.54095   0.83593   0.27169   1.000
    O212    O    0.57315   0.84082   0.35389   1.000
    O213    O    0.59852   0.85963   0.26792   1.000
    O214    O    0.57958   0.89960   0.35380   1.000
    Zr215   Zr   0.30869   0.87981   0.19121   1.000
    O216    O    0.26357   0.86471   0.17958   1.000
    O217    O    0.29090   0.91409   0.22834   1.000
    O218    O    0.34851   0.89042   0.23212   1.000
    O219    O    0.32315   0.90918   0.14611   1.000
    O220    O    0.32961   0.85038   0.14644   1.000
    O221    O    0.30885   0.84663   0.23773   1.000
    Zr222   Zr   0.80868   0.87981   0.19122   1.000
    O223    O    0.79089   0.91409   0.22835   1.000
    O224    O    0.84851   0.89042   0.23214   1.000
    O225    O    0.80884   0.84663   0.23774   1.000
    O226    O    0.76356   0.86470   0.17959   1.000
    O227    O    0.82314   0.90917   0.14612   1.000
    O228    O    0.82960   0.85037   0.14648   1.000
    Zr229   Zr   0.96404   0.87746   0.12962   1.000
    O230    O    0.93393   0.90815   0.10324   1.000
    O231    O    0.99967   0.90792   0.15029   1.000
    O232    O    0.99180   0.87159   0.07544   1.000
    O233    O    0.94560   0.88895   0.19364   1.000
    O234    O    0.92670   0.84890   0.10798   1.000
    O235    O    0.98179   0.84046   0.15968   1.000
    Zr236   Zr   0.49999   0.25000   0.00000   1.000
    O237    O    0.51427   0.29193   0.99443   1.000
    O238    O    0.54820   0.23905   0.98694   1.000
    O239    O    0.49701   0.24987   0.93074   1.000
    O240    O    0.50296   0.25014   0.06924   1.000
    O241    O    0.45179   0.26096   0.01305   1.000
    O242    O    0.48571   0.20808   0.00556   1.000
    Zr243   Zr   0.25000   0.75001   0.49998   1.000
    O244    O    0.23043   0.70855   0.48739   1.000
    O245    O    0.20642   0.76526   0.47774   1.000
    O246    O    0.27334   0.75482   0.43963   1.000
    O247    O    0.29358   0.73477   0.52222   1.000
    O248    O    0.26957   0.79148   0.51256   1.000
    O249    O    0.22665   0.74521   0.56032   1.000
    Zr250   Zr   0.03595   0.12256   0.87034   1.000
    O251    O    0.06606   0.09187   0.89672   1.000
    O252    O    0.07329   0.15111   0.89200   1.000
    O253    O    0.00031   0.09210   0.84968   1.000
    O254    O    0.00818   0.12843   0.92451   1.000
    O255    O    0.05438   0.11107   0.80632   1.000
    O256    O    0.01819   0.15956   0.84029   1.000
    Zr257   Zr   0.71402   0.87256   0.37048   1.000
    O258    O    0.73172   0.90956   0.34039   1.000
    O259    O    0.74968   0.84210   0.34978   1.000
    O260    O    0.74181   0.87842   0.42458   1.000
    O261    O    0.67666   0.90107   0.39232   1.000
    O262    O    0.69560   0.86110   0.30645   1.000
    O263    O    0.68393   0.84185   0.39680   1.000
    Zr264   Zr   0.25000   0.50001   0.49997   1.000
    O265    O    0.26430   0.45807   0.50550   1.000
    O266    O    0.23569   0.54195   0.49444   1.000
    O267    O    0.24704   0.50014   0.56918   1.000
    O268    O    0.25294   0.49988   0.43074   1.000
    O269    O    0.29822   0.51097   0.51286   1.000
    O270    O    0.20178   0.48905   0.48708   1.000
    Zr271   Zr   0.71401   0.37256   0.37048   1.000
    O272    O    0.74967   0.34210   0.34977   1.000
    O273    O    0.69560   0.36109   0.30645   1.000
    O274    O    0.67666   0.40105   0.39232   1.000
    O275    O    0.68392   0.34184   0.39680   1.000
    O276    O    0.73172   0.40956   0.34039   1.000
    O277    O    0.74181   0.37841   0.42458   1.000
    Zr278   Zr   0.21402   0.37255   0.37048   1.000
    O279    O    0.24968   0.34210   0.34977   1.000
    O280    O    0.23173   0.40956   0.34038   1.000
    O281    O    0.18393   0.34184   0.39681   1.000
    O282    O    0.17667   0.40105   0.39233   1.000
    O283    O    0.19561   0.36109   0.30645   1.000
    O284    O    0.24182   0.37841   0.42457   1.000
    Zr285   Zr   0.74998   0.25000   0.49998   1.000
    O286    O    0.73042   0.20854   0.48739   1.000
    O287    O    0.77333   0.25481   0.43963   1.000
    O288    O    0.76955   0.29147   0.51257   1.000
    O289    O    0.70641   0.26525   0.47774   1.000
    O290    O    0.72664   0.24520   0.56033   1.000
    O291    O    0.79357   0.23476   0.52222   1.000
    Zr292   Zr   0.28597   0.62746   0.62947   1.000
    O293    O    0.26826   0.59046   0.65956   1.000
    O294    O    0.30439   0.63893   0.69350   1.000
    O295    O    0.31606   0.65818   0.60315   1.000
    O296    O    0.25818   0.62161   0.57537   1.000
    O297    O    0.25031   0.65792   0.65017   1.000
    O298    O    0.32333   0.59897   0.60761   1.000
    Zr299   Zr   0.96403   0.37745   0.12962   1.000
    O300    O    0.93393   0.40814   0.10324   1.000
    O301    O    0.99967   0.40791   0.15028   1.000
    O302    O    0.92669   0.34890   0.10796   1.000
    O303    O    0.99180   0.37158   0.07544   1.000
    O304    O    0.98179   0.34045   0.15968   1.000
    O305    O    0.94560   0.38895   0.19364   1.000
    Zr306   Zr   0.50000   0.75001   0.00000   1.000
    O307    O    0.51428   0.79194   0.99443   1.000
    O308    O    0.54820   0.73906   0.98694   1.000
    O309    O    0.48572   0.70809   0.00555   1.000
    O310    O    0.50297   0.75014   0.06924   1.000
    O311    O    0.49702   0.74988   0.93074   1.000
    O312    O    0.45179   0.76097   0.01304   1.000
    Zr313   Zr   0.74998   0.00000   0.49997   1.000
    O314    O    0.74703   0.00013   0.56918   1.000
    O315    O    0.70177   0.98905   0.48707   1.000
    O316    O    0.73568   0.04194   0.49443   1.000
    O317    O    0.79820   0.01096   0.51287   1.000
    O318    O    0.76429   0.95807   0.50551   1.000
    O319    O    0.75293   0.99987   0.43075   1.000
    Zr320   Zr   0.49999   1.00000   0.99999   1.000
    O321    O    0.51955   0.95852   0.98737   1.000
    O322    O    0.48044   0.04149   0.01259   1.000
    O323    O    0.54358   0.01527   0.97775   1.000
    O324    O    0.47668   0.00481   0.93963   1.000
    O325    O    0.52332   0.99519   0.06033   1.000
    O326    O    0.45641   0.98474   0.02221   1.000
    Zr327   Zr   0.74999   0.50001   0.49998   1.000
    O328    O    0.70177   0.48905   0.48708   1.000
    O329    O    0.79821   0.51097   0.51287   1.000
    O330    O    0.74704   0.50014   0.56919   1.000
    O331    O    0.76429   0.45807   0.50552   1.000
    O332    O    0.73569   0.54195   0.49444   1.000
    O333    O    0.75294   0.49988   0.43076   1.000
    Zr334   Zr   0.55868   0.37020   0.30885   1.000
    O335    O    0.51355   0.38534   0.32047   1.000
    O336    O    0.57315   0.34081   0.35390   1.000
    O337    O    0.59851   0.35962   0.26793   1.000
    O338    O    0.57957   0.39958   0.35381   1.000
    O339    O    0.55883   0.40338   0.26230   1.000
    O340    O    0.54094   0.33592   0.27170   1.000
    Zr341   Zr   0.00000   0.00000   0.00000   1.000
    O342    O    0.98044   0.04149   0.01259   1.000
    O343    O    0.04359   0.01527   0.97775   1.000
    O344    O    0.01955   0.95852   0.98738   1.000
    O345    O    0.02332   0.99519   0.06035   1.000
    O346    O    0.95641   0.98474   0.02223   1.000
    O347    O    0.97667   0.00482   0.93964   1.000
    Zr348   Zr   0.03596   0.62257   0.87033   1.000
    O349    O    0.07329   0.65112   0.89198   1.000
    O350    O    0.06606   0.59188   0.89671   1.000
    O351    O    0.01819   0.65957   0.84023   1.000
    O352    O    0.00032   0.59211   0.84967   1.000
    O353    O    0.00819   0.62844   0.92450   1.000
    O354    O    0.05439   0.61107   0.80631   1.000
    Zr355   Zr   0.19131   0.62022   0.80874   1.000
    O356    O    0.17039   0.64966   0.85348   1.000
    O357    O    0.15148   0.60960   0.76782   1.000
    O358    O    0.20909   0.58593   0.77160   1.000
    O359    O    0.17685   0.59085   0.85383   1.000
    O360    O    0.19115   0.65340   0.76221   1.000
    O361    O    0.23643   0.63532   0.82036   1.000
    Zr362   Zr   0.30868   0.37980   0.19121   1.000
    O363    O    0.29089   0.41409   0.22834   1.000
    O364    O    0.34851   0.39042   0.23213   1.000
    O365    O    0.32314   0.40917   0.14612   1.000
    O366    O    0.26357   0.36470   0.17958   1.000
    O367    O    0.30885   0.34662   0.23773   1.000
    O368    O    0.32961   0.35037   0.14645   1.000
    Zr369   Zr   0.05869   0.37020   0.30880   1.000
    O370    O    0.09853   0.35962   0.26790   1.000
    O371    O    0.07958   0.39958   0.35378   1.000
    O372    O    0.01356   0.38534   0.32044   1.000
    O373    O    0.07316   0.34081   0.35387   1.000
    O374    O    0.04095   0.33592   0.27166   1.000
    O375    O    0.05883   0.40338   0.26227   1.000
    Zr376   Zr   0.21403   0.87256   0.37048   1.000
    O377    O    0.24182   0.87842   0.42457   1.000
    O378    O    0.17667   0.90106   0.39233   1.000
    O379    O    0.19561   0.86110   0.30645   1.000
    O380    O    0.23174   0.90957   0.34039   1.000
    O381    O    0.18394   0.84185   0.39680   1.000
    O382    O    0.24969   0.84210   0.34977   1.000
    Zr383   Zr   0.80867   0.37980   0.19121   1.000
    O384    O    0.80884   0.34662   0.23773   1.000
    O385    O    0.84850   0.39041   0.23213   1.000
    O386    O    0.79089   0.41409   0.22835   1.000
    O387    O    0.76356   0.36470   0.17959   1.000
    O388    O    0.82960   0.35037   0.14646   1.000
    O389    O    0.82313   0.40917   0.14612   1.000
    Zr390   Zr   0.94129   0.12981   0.69111   1.000
    O391    O    0.90146   0.14039   0.73202   1.000
    O392    O    0.92683   0.15920   0.64606   1.000
    O393    O    0.95902   0.16409   0.72827   1.000
    O394    O    0.92040   0.10043   0.64614   1.000
    O395    O    0.98643   0.11468   0.67948   1.000
    O396    O    0.94115   0.09663   0.73766   1.000
    Zr397   Zr   0.28597   0.12746   0.62948   1.000
    O398    O    0.25817   0.12160   0.57538   1.000
    O399    O    0.31606   0.15817   0.60315   1.000
    O400    O    0.26826   0.09045   0.65956   1.000
    O401    O    0.25031   0.15792   0.65019   1.000
    O402    O    0.32333   0.09897   0.60759   1.000
    O403    O    0.30438   0.13892   0.69351   1.000
    Zr404   Zr   0.78596   0.12746   0.62948   1.000
    O405    O    0.76825   0.09045   0.65956   1.000
    O406    O    0.75816   0.12160   0.57538   1.000
    O407    O    0.80437   0.13892   0.69351   1.000
    O408    O    0.81605   0.15817   0.60315   1.000
    O409    O    0.82332   0.09896   0.60763   1.000
    O410    O    0.75030   0.15791   0.65018   1.000
    Zr411   Zr   0.00001   0.75001   0.99999   1.000
    O412    O    0.99701   0.74988   0.93069   1.000
    O413    O    0.00298   0.75014   0.06924   1.000
    O414    O    0.01428   0.79194   0.99442   1.000
    O415    O    0.98572   0.70809   0.00554   1.000
    O416    O    0.95179   0.76096   0.01306   1.000
    O417    O    0.04821   0.73906   0.98691   1.000
    Zr418   Zr   0.44130   0.12981   0.69111   1.000
    O419    O    0.40147   0.14039   0.73202   1.000
    O420    O    0.44116   0.09663   0.73765   1.000
    O421    O    0.45903   0.16409   0.72826   1.000
    O422    O    0.42684   0.15920   0.64606   1.000
    O423    O    0.48643   0.11468   0.67949   1.000
    O424    O    0.42041   0.10044   0.64611   1.000
    Zr425   Zr   0.78596   0.62747   0.62948   1.000
    O426    O    0.75030   0.65792   0.65018   1.000
    O427    O    0.76825   0.59046   0.65957   1.000
    O428    O    0.75817   0.62161   0.57538   1.000
    O429    O    0.81605   0.65818   0.60315   1.000
    O430    O    0.82332   0.59896   0.60762   1.000
    O431    O    0.80438   0.63893   0.69351   1.000
loop_
    _geom_bond_atom_site_label_1
    _geom_bond_atom_site_label_2
    _geom_bond_distance
    _geom_bond_site_symmetry_2
    _ccdc_geom_bond_type
    Zr96   O97       1.02177  1_554   S
    N23    O97       2.06106      .   S
    Zr96   O98       1.05174      .   S
    N63    O98       2.12634      .   S
    Zr96   O99       1.00770  1_554   S
    N28    O99       2.00133      .   S
    Zr96   O100      1.02151      .   S
    N84    O100      2.06058      .   S
    Zr96   O101      1.00759      .   S
    N9     O101      2.00125      .   S
    Zr96   O102      1.05178  1_554   S
    N88    O102      2.12640      .   S
    Zr103  O104      1.01955      .   S
    N9     O104      2.05643      .   S
    Zr103  O105      1.05025      .   S
    N84    O105      2.11582      .   S
    Zr103  O106      1.05020      .   S
    N0     O106      2.11230      .   S
    Zr103  O107      1.03751      .   S
    N4     O107      2.08554      .   S
    Zr103  O108      0.98862      .   S
    N88    O108      1.99176  1_556   S
    Zr103  O109      1.05125      .   S
    N37    O109      2.11618      .   S
    Zr110  O111      1.02302      .   S
    N74    O111      2.05694      .   S
    Zr110  O112      1.00744      .   S
    N28    O112      2.03391      .   S
    Zr110  O113      1.04345      .   S
    N85    O113      2.08316      .   S
    Zr110  O114      1.03608      .   S
    N31    O114      2.07620      .   S
    Zr110  O115      0.99111      .   S
    N87    O115      1.99651      .   S
    Zr110  O116      1.03327      .   S
    N53    O116      2.06665      .   S
    Zr117  O118      1.01779  1_554   S
    N32    O118      2.02443      .   S
    Zr117  O119      1.02450  1_455   S
    N90    O119      2.06458      .   S
    Zr117  O120      1.01780  1_455   S
    N30    O120      2.02444      .   S
    Zr117  O121      1.03128  1_454   S
    N81    O121      2.07539      .   S
    Zr117  O122      1.03106      .   S
    N1     O122      2.07510      .   S
    Zr117  O123      1.02435  1_554   S
    N48    O123      2.06439      .   S
    Zr124  O125      1.03330      .   S
    N19    O125      2.06670      .   S
    Zr124  O126      1.04345      .   S
    N83    O126      2.08315      .   S
    Zr124  O127      0.99111      .   S
    N86    O127      1.99651      .   S
    Zr124  O128      1.03611      .   S
    N94    O128      2.07628      .   S
    Zr124  O129      1.02301      .   S
    N3     O129      2.05686      .   S
    Zr124  O130      1.00734      .   S
    N79    O130      2.03373      .   S
    Zr131  O132      1.00711      .   S
    N43    O132      2.03331      .   S
    Zr131  O133      1.03538      .   S
    N68    O133      2.07499      .   S
    Zr131  O134      1.02331      .   S
    N5     O134      2.05771      .   S
    Zr131  O135      1.03485      .   S
    N77    O135      2.06989      .   S
    Zr131  O136      1.04368      .   S
    N56    O136      2.08350      .   S
    Zr131  O137      0.99109      .   S
    N45    O137      1.99654  1_655   S
    Zr138  O139      0.99095      .   S
    N31    O139      1.99631      .   S
    Zr138  O140      1.00718      .   S
    N34    O140      2.03338      .   S
    Zr138  O141      1.03534      .   S
    N52    O141      2.07485      .   S
    Zr138  O142      1.04364      .   S
    N23    O142      2.08355      .   S
    Zr138  O143      1.03488      .   S
    N61    O143      2.06995      .   S
    Zr138  O144      1.02328      .   S
    N92    O144      2.05763      .   S
    Zr145  O146      1.02287      .   S
    N13    O146      2.05665      .   S
    Zr145  O147      0.99108      .   S
    N35    O147      1.99653  1_455   S
    Zr145  O148      1.03486      .   S
    N47    O148      2.06989      .   S
    Zr145  O149      1.04370      .   S
    N76    O149      2.08356      .   S
    Zr145  O150      1.03536      .   S
    N87    O150      2.07488      .   S
    Zr145  O151      1.00718      .   S
    N93    O151      2.03338      .   S
    Zr152  O153      1.02159      .   S
    N6     O153      2.06071      .   S
    Zr152  O154      1.02157      .   S
    N80    O154      2.06070      .   S
    Zr152  O155      1.05205      .   S
    N40    O155      2.12690      .   S
    Zr152  O156      1.00707      .   S
    N69    O156      2.00038      .   S
    Zr152  O157      1.05204      .   S
    N78    O157      2.12687      .   S
    Zr152  O158      1.00705      .   S
    N62    O158      2.00035      .   S
    Zr159  O160      1.02152  1_556   S
    N70    O160      2.06060      .   S
    Zr159  O161      1.00779  1_456   S
    N12    O161      2.00153      .   S
    Zr159  O162      1.05175      .   S
    N32    O162      2.12636      .   S
    Zr159  O163      1.02176  1_455   S
    N76    O163      2.06102      .   S
    Zr159  O164      1.05181  1_456   S
    N55    O164      2.12645      .   S
    Zr159  O165      1.00770      .   S
    N95    O165      2.00133      .   S
    Zr166  O167      0.98865      .   S
    N18    O167      1.99181  1_554   S
    Zr166  O168      1.05021      .   S
    N19    O168      2.11233      .   S
    Zr166  O169      1.01947      .   S
    N79    O169      2.05636      .   S
    Zr166  O170      1.05020      .   S
    N44    O170      2.11568      .   S
    Zr166  O171      1.03755      .   S
    N50    O171      2.08567      .   S
    Zr166  O172      1.05128      .   S
    N94    O172      2.11629      .   S
    Zr173  O174      1.05204      .   S
    N26    O174      2.12688      .   S
    Zr173  O175      1.05203      .   S
    N59    O175      2.12689      .   S
    Zr173  O176      1.02157      .   S
    N38    O176      2.06068      .   S
    Zr173  O177      1.02158      .   S
    N85    O177      2.06067      .   S
    Zr173  O178      1.00706      .   S
    N93    O178      2.00035      .   S
    Zr173  O179      1.00707      .   S
    N82    O179      2.00038      .   S
    Zr180  O181      1.03324      .   S
    N48    O181      2.06658      .   S
    Zr180  O182      1.02299      .   S
    N73    O182      2.05684      .   S
    Zr180  O183      1.03610      .   S
    N21    O183      2.07628      .   S
    Zr180  O184      0.99112      .   S
    N42    O184      1.99652      .   S
    Zr180  O185      1.04340      .   S
    N80    O185      2.08308      .   S
    Zr180  O186      1.00742      .   S
    N57    O186      2.03390      .   S
    Zr187  O188      1.05124      .   S
    N31    O188      2.11619      .   S
    Zr187  O189      0.98858      .   S
    N63    O189      1.99166  1_554   S
    Zr187  O190      1.05027      .   S
    N23    O190      2.11581      .   S
    Zr187  O191      1.03752      .   S
    N92    O191      2.08558      .   S
    Zr187  O192      1.01950      .   S
    N28    O192      2.05645      .   S
    Zr187  O193      1.05021      .   S
    N53    O193      2.11233      .   S
    Zr194  O195      1.05120      .   S
    N49    O195      2.11626      .   S
    Zr194  O196      1.05025      .   S
    N75    O196      2.11577      .   S
    Zr194  O197      1.05018      .   S
    N2     O197      2.11228      .   S
    Zr194  O198      1.03756      .   S
    N7     O198      2.08565      .   S
    Zr194  O199      1.01954      .   S
    N54    O199      2.05643      .   S
    Zr194  O200      0.98858      .   S
    N27    O200      1.99177  1_556   S
    Zr201  O202      1.03062  1_545   S
    N65    O202      2.07429      .   S
    Zr201  O203      1.01776      .   S
    N78    O203      2.02431      .   S
    Zr201  O204      1.03058      .   S
    N73    O204      2.07426      .   S
    Zr201  O205      1.02471      .   S
    N60    O205      2.06522      .   S
    Zr201  O206      1.02460  1_545   S
    N77    O206      2.06503      .   S
    Zr201  O207      1.01762  1_545   S
    N58    O207      2.02411      .   S
    Zr208  O209      1.04368      .   S
    N75    O209      2.08351      .   S
    Zr208  O210      0.99096      .   S
    N49    O210      1.99633      .   S
    Zr208  O211      1.02324      .   S
    N7     O211      2.05758      .   S
    Zr208  O212      1.00719      .   S
    N82    O212      2.03338      .   S
    Zr208  O213      1.03537      .   S
    N41    O213      2.07497      .   S
    Zr208  O214      1.03479      .   S
    N39    O214      2.06983      .   S
    Zr215  O216      0.99112      .   S
    N68    O216      1.99653      .   S
    Zr215  O217      1.02296      .   S
    N65    O217      2.05677      .   S
    Zr215  O218      1.03601      .   S
    N49    O218      2.07617      .   S
    Zr215  O219      1.00750      .   S
    N54    O219      2.03406      .   S
    Zr215  O220      1.03329      .   S
    N2     O220      2.06669      .   S
    Zr215  O221      1.04340      .   S
    N14    O221      2.08303      .   S
    Zr222  O223      1.02298      .   S
    N67    O223      2.05684      .   S
    Zr222  O224      1.03611      .   S
    N45    O224      2.07623      .   S
    Zr222  O225      1.04340      .   S
    N38    O225      2.08308      .   S
    Zr222  O226      0.99114      .   S
    N41    O226      1.99654      .   S
    Zr222  O227      1.00743      .   S
    N8     O227      2.03387      .   S
    Zr222  O228      1.03316      .   S
    N89    O228      2.06644      .   S
    Zr229  O230      1.01946      .   S
    N8     O230      2.05637      .   S
    Zr229  O231      1.05031      .   S
    N56    O231      2.11586  1_455   S
    Zr229  O232      0.98874      .   S
    N16    O232      1.99198  1_456   S
    Zr229  O233      1.05129      .   S
    N45    O233      2.11627      .   S
    Zr229  O234      1.05020      .   S
    N89    O234      2.11228      .   S
    Zr229  O235      1.03756      .   S
    N5     O235      2.08561  1_455   S
    Zr236  O237      1.01778  1_554   S
    N88    O237      2.02441      .   S
    Zr236  O238      1.02430  1_554   S
    N19    O238      2.06430      .   S
    Zr236  O239      1.03131  1_554   S
    N50    O239      2.07557      .   S
    Zr236  O240      1.03110      .   S
    N4     O240      2.07522      .   S
    Zr236  O241      1.02432      .   S
    N0     O241      2.06429      .   S
    Zr236  O242      1.01775      .   S
    N18    O242      2.02434      .   S
    Zr243  O244      1.05205      .   S
    N24    O244      2.12690      .   S
    Zr243  O245      1.00708      .   S
    N43    O245      2.00040      .   S
    Zr243  O246      1.02163      .   S
    N14    O246      2.06084      .   S
    Zr243  O247      1.00706      .   S
    N34    O247      2.00037      .   S
    Zr243  O248      1.05204      .   S
    N58    O248      2.12688      .   S
    Zr243  O249      1.02150      .   S
    N11    O249      2.06046      .   S
    Zr250  O251      1.01948      .   S
    N57    O251      2.05640      .   S
    Zr250  O252      1.05019      .   S
    N48    O252      2.11228      .   S
    Zr250  O253      1.05033      .   S
    N36    O253      2.11590  1_655   S
    Zr250  O254      0.98871      .   S
    N30    O254      1.99192  1_654   S
    Zr250  O255      1.05129      .   S
    N21    O255      2.11634      .   S
    Zr250  O256      1.03760      .   S
    N81    O256      2.08571  1_655   S
    Zr257  O258      1.03788      .   S
    N67    O258      2.08634      .   S
    Zr257  O259      1.04987      .   S
    N38    O259      2.11509      .   S
    Zr257  O260      0.98844      .   S
    N59    O260      1.99129      .   S
    Zr257  O261      1.04973      .   S
    N39    O261      2.11186      .   S
    Zr257  O262      1.05154      .   S
    N41    O262      2.11675      .   S
    Zr257  O263      1.01984      .   S
    N82    O263      2.05714      .   S
    Zr264  O265      1.01775      .   S
    N40    O265      2.02430      .   S
    Zr264  O266      1.01774      .   S
    N24    O266      2.02428      .   S
    Zr264  O267      1.03054      .   S
    N72    O267      2.07421      .   S
    Zr264  O268      1.03077      .   S
    N66    O268      2.07444      .   S
    Zr264  O269      1.02471      .   S
    N61    O269      2.06524      .   S
    Zr264  O270      1.02473      .   S
    N15    O270      2.06527      .   S
    Zr271  O272      1.04986      .   S
    N71    O272      2.11508      .   S
    Zr271  O273      1.05149      .   S
    N22    O273      2.11658      .   S
    Zr271  O274      1.04969      .   S
    N17    O274      2.11185      .   S
    Zr271  O275      1.01986      .   S
    N51    O275      2.05717      .   S
    Zr271  O276      1.03795      .   S
    N64    O276      2.08657      .   S
    Zr271  O277      0.98846      .   S
    N33    O277      1.99136      .   S
    Zr278  O279      1.04987      .   S
    N6     O279      2.11508      .   S
    Zr278  O280      1.03795      .   S
    N66    O280      2.08656      .   S
    Zr278  O281      1.01984      .   S
    N69    O281      2.05715      .   S
    Zr278  O282      1.04972      .   S
    N15    O282      2.11183      .   S
    Zr278  O283      1.05158      .   S
    N29    O283      2.11689      .   S
    Zr278  O284      0.98842      .   S
    N40    O284      1.99129      .   S
    Zr285  O286      1.05205      .   S
    N25    O286      2.12691      .   S
    Zr285  O287      1.02159      .   S
    N71    O287      2.06071      .   S
    Zr285  O288      1.05203      .   S
    N33    O288      2.12687      .   S
    Zr285  O289      1.00707      .   S
    N51    O289      2.00037      .   S
    Zr285  O290      1.02157      .   S
    N83    O290      2.06068      .   S
    Zr285  O291      1.00707      .   S
    N91    O291      2.00037      .   S
    Zr292  O293      1.03796      .   S
    N72    O293      2.08657      .   S
    Zr292  O294      1.05152      .   S
    N52    O294      2.11663      .   S
    Zr292  O295      1.01985      .   S
    N34    O295      2.05716      .   S
    Zr292  O296      0.98845      .   S
    N24    O296      1.99133      .   S
    Zr292  O297      1.04986      .   S
    N11    O297      2.11507      .   S
    Zr292  O298      1.04973      .   S
    N61    O298      2.11187      .   S
    Zr299  O300      1.01949      .   S
    N12    O300      2.05643      .   S
    Zr299  O301      1.05034      .   S
    N70    O301      2.11594  1_455   S
    Zr299  O302      1.05020      .   S
    N90    O302      2.11228      .   S
    Zr299  O303      0.98870      .   S
    N32    O303      1.99192  1_456   S
    Zr299  O304      1.03757      .   S
    N1     O304      2.08565  1_455   S
    Zr299  O305      1.05125      .   S
    N20    O305      2.11620      .   S
    Zr306  O307      1.01780  1_554   S
    N27    O307      2.02447      .   S
    Zr306  O308      1.02431  1_554   S
    N53    O308      2.06432      .   S
    Zr306  O309      1.01776      .   S
    N63    O309      2.02432      .   S
    Zr306  O310      1.03110      .   S
    N7     O310      2.07509      .   S
    Zr306  O311      1.03133  1_554   S
    N92    O311      2.07546      .   S
    Zr306  O312      1.02430      .   S
    N2     O312      2.06427      .   S
    Zr313  O314      1.03060      .   S
    N3     O314      2.07432      .   S
    Zr313  O315      1.02462  1_545   S
    N39    O315      2.06507      .   S
    Zr313  O316      1.01776      .   S
    N25    O316      2.02429      .   S
    Zr313  O317      1.02472      .   S
    N46    O317      2.06526      .   S
    Zr313  O318      1.01760  1_545   S
    N59    O318      2.02407      .   S
    Zr313  O319      1.03061  1_545   S
    N67    O319      2.07430      .   S
    Zr320  O321      1.05168      .   S
    N27    O321      2.12619      .   S
    Zr320  O322      1.05174  1_566   S
    N18    O322      2.12634      .   S
    Zr320  O323      1.00773  1_565   S
    N79    O323      2.00142      .   S
    Zr320  O324      1.02171  1_565   S
    N44    O324      2.06097      .   S
    Zr320  O325      1.02154  1_556   S
    N75    O325      2.06063      .   S
    Zr320  O326      1.00748  1_556   S
    N54    O326      2.00110      .   S
    Zr327  O328      1.02472      .   S
    N17    O328      2.06528      .   S
    Zr327  O329      1.02470      .   S
    N47    O329      2.06521      .   S
    Zr327  O330      1.03059      .   S
    N74    O330      2.07428      .   S
    Zr327  O331      1.01774      .   S
    N33    O331      2.02428      .   S
    Zr327  O332      1.01775      .   S
    N26    O332      2.02429      .   S
    Zr327  O333      1.03063      .   S
    N64    O333      2.07433      .   S
    Zr334  O335      0.99096      .   S
    N37    O335      1.99633      .   S
    Zr334  O336      1.00717      .   S
    N51    O336      2.03336      .   S
    Zr334  O337      1.03535      .   S
    N22    O337      2.07487      .   S
    Zr334  O338      1.03475      .   S
    N17    O338      2.06985      .   S
    Zr334  O339      1.04373      .   S
    N84    O339      2.08361      .   S
    Zr334  O340      1.02326      .   S
    N4     O340      2.05762      .   S
    Zr341  O342      1.05181  1_455   S
    N30    O342      2.12645      .   S
    Zr341  O343      1.00772  1_554   S
    N57    O343      2.00139      .   S
    Zr341  O344      1.05162  1_544   S
    N16    O344      2.12610      .   S
    Zr341  O345      1.02152  1_545   S
    N56    O345      2.06062      .   S
    Zr341  O346      1.00769  1_445   S
    N8     O346      2.00140      .   S
    Zr341  O347      1.02178  1_454   S
    N36    O347      2.06106      .   S
    Zr348  O349      1.05018      .   S
    N10    O349      2.11223      .   S
    Zr348  O350      1.01948      .   S
    N95    O350      2.05641      .   S
    Zr348  O351      1.03789      .   S
    N13    O351      2.08640  1_655   S
    Zr348  O352      1.05035      .   S
    N76    O352      2.11597  1_655   S
    Zr348  O353      0.98869      .   S
    N55    O353      1.99190  1_654   S
    Zr348  O354      1.05125      .   S
    N35    O354      2.11620      .   S
    Zr355  O356      1.03315      .   S
    N10    O356      2.06643      .   S
    Zr355  O357      1.03612      .   S
    N35    O357      2.07627      .   S
    Zr355  O358      1.02303      .   S
    N72    O358      2.05696      .   S
    Zr355  O359      1.00741      .   S
    N95    O359      2.03392      .   S
    Zr355  O360      1.04346      .   S
    N11    O360      2.08323      .   S
    Zr355  O361      0.99113      .   S
    N52    O361      1.99654      .   S
    Zr362  O363      1.02299      .   S
    N66    O363      2.05689      .   S
    Zr362  O364      1.03611      .   S
    N37    O364      2.07627      .   S
    Zr362  O365      1.00747      .   S
    N9     O365      2.03401      .   S
    Zr362  O366      0.99114      .   S
    N29    O366      1.99655      .   S
    Zr362  O367      1.04343      .   S
    N6     O367      2.08311      .   S
    Zr362  O368      1.03323      .   S
    N0     O368      2.06657      .   S
    Zr369  O370      1.03526      .   S
    N29    O370      2.07480      .   S
    Zr369  O371      1.03499      .   S
    N15    O371      2.07012      .   S
    Zr369  O372      0.99114      .   S
    N20    O372      1.99658  1_655   S
    Zr369  O373      1.00735      .   S
    N69    O373      2.03363      .   S
    Zr369  O374      1.02313      .   S
    N1     O374      2.05743      .   S
    Zr369  O375      1.04357      .   S
    N70    O375      2.08338      .   S
    Zr376  O377      0.98837      .   S
    N58    O377      1.99127      .   S
    Zr376  O378      1.04973      .   S
    N77    O378      2.11187      .   S
    Zr376  O379      1.05154      .   S
    N68    O379      2.11675      .   S
    Zr376  O380      1.03790      .   S
    N65    O380      2.08641      .   S
    Zr376  O381      1.01985      .   S
    N43    O381      2.05714      .   S
    Zr376  O382      1.04989      .   S
    N14    O382      2.11512      .   S
    Zr383  O384      1.04343      .   S
    N71    O384      2.08311      .   S
    Zr383  O385      1.03611      .   S
    N20    O385      2.07626      .   S
    Zr383  O386      1.02300      .   S
    N64    O386      2.05690      .   S
    Zr383  O387      0.99113      .   S
    N22    O387      1.99654      .   S
    Zr383  O388      1.03318      .   S
    N90    O388      2.06648      .   S
    Zr383  O389      1.00744      .   S
    N12    O389      2.03393      .   S
    Zr390  O391      1.03536      .   S
    N86    O391      2.07489      .   S
    Zr390  O392      1.00717      .   S
    N91    O392      2.03336      .   S
    Zr390  O393      1.02326      .   S
    N81    O393      2.05758      .   S
    Zr390  O394      1.03485      .   S
    N46    O394      2.06990      .   S
    Zr390  O395      0.99109      .   S
    N21    O395      1.99654  1_455   S
    Zr390  O396      1.04371      .   S
    N36    O396      2.08353      .   S
    Zr397  O398      0.98849      .   S
    N78    O398      1.99139      .   S
    Zr397  O399      1.01989      .   S
    N62    O399      2.05724      .   S
    Zr397  O400      1.03788      .   S
    N73    O400      2.08637      .   S
    Zr397  O401      1.04984      .   S
    N80    O401      2.11504      .   S
    Zr397  O402      1.04977      .   S
    N60    O402      2.11185      .   S
    Zr397  O403      1.05147      .   S
    N42    O403      2.11654      .   S
    Zr404  O405      1.03787      .   S
    N3     O405      2.08636      .   S
    Zr404  O406      0.98852      .   S
    N25    O406      1.99137      .   S
    Zr404  O407      1.05148      .   S
    N86    O407      2.11656      .   S
    Zr404  O408      1.01985      .   S
    N91    O408      2.05716      .   S
    Zr404  O409      1.04974      .   S
    N46    O409      2.11188      .   S
    Zr404  O410      1.04988      .   S
    N83    O410      2.11511      .   S
    Zr411  O412      1.03195  1_455   S
    N13    O412      2.07737      .   S
    Zr411  O413      1.03114  1_556   S
    N5     O413      2.07520      .   S
    Zr411  O414      1.01775      .   S
    N16    O414      2.02435      .   S
    Zr411  O415      1.01780  1_456   S
    N55    O415      2.02443      .   S
    Zr411  O416      1.02452  1_456   S
    N89    O416      2.06462      .   S
    Zr411  O417      1.02437      .   S
    N10    O417      2.06441      .   S
    Zr418  O419      1.03534      .   S
    N42    O419      2.07485      .   S
    Zr418  O420      1.04367      .   S
    N44    O420      2.08346      .   S
    Zr418  O421      1.02322      .   S
    N50    O421      2.05750      .   S
    Zr418  O422      1.00720      .   S
    N62    O422      2.03343      .   S
    Zr418  O423      0.99096      .   S
    N94    O423      1.99632      .   S
    Zr418  O424      1.03502      .   S
    N60    O424      2.07002      .   S
    Zr425  O426      1.04987      .   S
    N85    O426      2.11510      .   S
    Zr425  O427      1.03792      .   S
    N74    O427      2.08652      .   S
    Zr425  O428      0.98849      .   S
    N26    O428      1.99139      .   S
    Zr425  O429      1.01986      .   S
    N93    O429      2.05717      .   S
    Zr425  O430      1.04974      .   S
    N47    O430      2.11188      .   S
    Zr425  O431      1.05148      .   S
    N87    O431      2.11657      .   S
