# CIF file generated by openbabel 2.4.90, see http://openbabel.sf.net
data_I
_chemical_name_common ''
_cell_length_a 20.216
_cell_length_b 23.15
_cell_length_c 14.866
_cell_angle_alpha 91.111
_cell_angle_beta 89.98
_cell_angle_gamma 89.953
_space_group_name_H-M_alt 'P 1'
_space_group_name_Hall 'P 1'
loop_
    _symmetry_equiv_pos_as_xyz
    x,y,z
loop_
    _atom_site_label
    _atom_site_type_symbol
    _atom_site_fract_x
    _atom_site_fract_y
    _atom_site_fract_z
    _atom_site_occupancy
    C0      C    0.46404   0.37745   0.12962   1.000
    C1      C    0.46405   0.87746   0.12960   1.000
    C2      C    0.96403   0.37745   0.12962   1.000
    C3      C    0.96404   0.87746   0.12962   1.000
    C4      C    0.05869   0.37020   0.30880   1.000
    C5      C    0.05870   0.87021   0.30885   1.000
    C6      C    0.55868   0.37020   0.30885   1.000
    C7      C    0.55869   0.87021   0.30884   1.000
    C8      C    0.21402   0.37255   0.37048   1.000
    C9      C    0.21403   0.87256   0.37048   1.000
    C10     C    0.71401   0.37256   0.37048   1.000
    C11     C    0.71402   0.87256   0.37048   1.000
    C12     C    0.30868   0.37980   0.19121   1.000
    C13     C    0.30869   0.87981   0.19121   1.000
    C14     C    0.80867   0.37980   0.19121   1.000
    C15     C    0.80868   0.87981   0.19122   1.000
    C16     C    0.03595   0.12256   0.87034   1.000
    C17     C    0.03596   0.62257   0.87033   1.000
    C18     C    0.53594   0.12256   0.87034   1.000
    C19     C    0.53595   0.62257   0.87034   1.000
    C20     C    0.44130   0.12981   0.69111   1.000
    C21     C    0.44130   0.62982   0.69111   1.000
    C22     C    0.94129   0.12981   0.69111   1.000
    C23     C    0.94129   0.62982   0.69111   1.000
    C24     C    0.28597   0.12746   0.62948   1.000
    C25     C    0.28597   0.62746   0.62947   1.000
    C26     C    0.78596   0.12746   0.62948   1.000
    C27     C    0.78596   0.62747   0.62948   1.000
    C28     C    0.19131   0.12021   0.80874   1.000
    C29     C    0.19131   0.62022   0.80874   1.000
    C30     C    0.69130   0.12021   0.80875   1.000
    C31     C    0.69130   0.62022   0.80875   1.000
    C32     C    0.00000   0.25000   0.00000   1.000
    C33     C    0.00001   0.75001   0.99999   1.000
    C34     C    0.49999   0.25000   0.00000   1.000
    C35     C    0.50000   0.75001   0.00000   1.000
    C36     C    0.24999   0.00000   0.49997   1.000
    C37     C    0.25000   0.50001   0.49997   1.000
    C38     C    0.74998   0.00000   0.49997   1.000
    C39     C    0.74999   0.50001   0.49998   1.000
    C40     C    0.00000   0.00000   0.00000   1.000
    C41     C    0.00001   0.50001   0.99999   1.000
    C42     C    0.49999   1.00000   0.99999   1.000
    C43     C    0.49999   0.50001   0.00000   1.000
    C44     C    0.25000   0.25001   0.49998   1.000
    C45     C    0.25000   0.75001   0.49998   1.000
    C46     C    0.74998   0.25000   0.49998   1.000
    C47     C    0.74999   0.75001   0.49998   1.000
    C48     C    0.37878   0.42832   0.37132   1.000
    C49     C    0.37878   0.92831   0.37132   1.000
    C50     C    0.87877   0.42829   0.37133   1.000
    C51     C    0.87877   0.92830   0.37133   1.000
    C52     C    0.02503   0.23722   0.27027   1.000
    C53     C    0.02499   0.73723   0.27028   1.000
    C54     C    0.52500   0.23723   0.27029   1.000
    C55     C    0.52504   0.73723   0.27026   1.000
    C56     C    0.30480   0.28102   0.04455   1.000
    C57     C    0.30481   0.78103   0.04453   1.000
    C58     C    0.80479   0.28102   0.04458   1.000
    C59     C    0.80479   0.78101   0.04462   1.000
    C60     C    0.10272   0.49082   0.23310   1.000
    C61     C    0.10271   0.99084   0.23314   1.000
    C62     C    0.60274   0.49081   0.23310   1.000
    C63     C    0.60275   0.99082   0.23309   1.000
    C64     C    0.08084   0.34530   0.91955   1.000
    C65     C    0.08080   0.84531   0.91948   1.000
    C66     C    0.58083   0.34530   0.91955   1.000
    C67     C    0.58086   0.84531   0.91956   1.000
    C68     C    0.35406   0.00144   0.01222   1.000
    C69     C    0.35406   0.50143   0.01220   1.000
    C70     C    0.85405   0.00142   0.01220   1.000
    C71     C    0.85405   0.50143   0.01219   1.000
    C72     C    0.12882   0.32185   0.12870   1.000
    C73     C    0.12882   0.82188   0.12875   1.000
    C74     C    0.62881   0.32186   0.12876   1.000
    C75     C    0.62882   0.82186   0.12875   1.000
    C76     C    0.27512   0.01277   0.22983   1.000
    C77     C    0.27505   0.51278   0.22980   1.000
    C78     C    0.77504   0.01277   0.22981   1.000
    C79     C    0.77512   0.51278   0.22984   1.000
    C80     C    0.05476   0.46905   0.45605   1.000
    C81     C    0.05477   0.96907   0.45605   1.000
    C82     C    0.55475   0.46907   0.45604   1.000
    C83     C    0.55476   0.96908   0.45601   1.000
    C84     C    0.35284   0.25917   0.26685   1.000
    C85     C    0.35283   0.75917   0.26683   1.000
    C86     C    0.85281   0.25916   0.26684   1.000
    C87     C    0.85284   0.75918   0.26686   1.000
    C88     C    0.33100   0.40463   0.58016   1.000
    C89     C    0.33101   0.90464   0.58016   1.000
    C90     C    0.83097   0.40463   0.58020   1.000
    C91     C    0.83099   0.90464   0.58018   1.000
    C92     C    0.10414   0.24850   0.48771   1.000
    C93     C    0.10414   0.74850   0.48770   1.000
    C94     C    0.60413   0.24849   0.48770   1.000
    C95     C    0.60413   0.74851   0.48770   1.000
    C96     C    0.12121   0.07172   0.62863   1.000
    C97     C    0.12121   0.57172   0.62862   1.000
    C98     C    0.62120   0.07172   0.62860   1.000
    C99     C    0.62121   0.57174   0.62863   1.000
    C100    C    0.47491   0.26279   0.72972   1.000
    C101    C    0.47495   0.76280   0.72970   1.000
    C102    C    0.97489   0.26279   0.72972   1.000
    C103    C    0.97491   0.76279   0.72900   1.000
    C104    C    0.19519   0.21901   0.95538   1.000
    C105    C    0.19520   0.71900   0.95536   1.000
    C106    C    0.69518   0.21898   0.95545   1.000
    C107    C    0.69519   0.71900   0.95542   1.000
    C108    C    0.39730   0.00918   0.76679   1.000
    C109    C    0.39726   0.50920   0.76684   1.000
    C110    C    0.89724   0.00920   0.76685   1.000
    C111    C    0.89726   0.50920   0.76683   1.000
    C112    C    0.41918   0.15471   0.08046   1.000
    C113    C    0.41915   0.65472   0.08042   1.000
    C114    C    0.91912   0.15471   0.08040   1.000
    C115    C    0.91913   0.65472   0.08039   1.000
    C116    C    0.14593   0.49859   0.98776   1.000
    C117    C    0.14594   0.99859   0.98775   1.000
    C118    C    0.64592   0.49859   0.98776   1.000
    C119    C    0.64593   0.99859   0.98770   1.000
    C120    C    0.37117   0.17814   0.87120   1.000
    C121    C    0.37117   0.67816   0.87120   1.000
    C122    C    0.87116   0.17815   0.87120   1.000
    C123    C    0.87116   0.67816   0.87120   1.000
    C124    C    0.22485   0.48723   0.77009   1.000
    C125    C    0.22488   0.98724   0.77010   1.000
    C126    C    0.72488   0.48724   0.77012   1.000
    C127    C    0.72487   0.98724   0.77011   1.000
    C128    C    0.44523   0.03100   0.54381   1.000
    C129    C    0.44523   0.53095   0.54391   1.000
    C130    C    0.94522   0.03094   0.54392   1.000
    C131    C    0.94522   0.53095   0.54392   1.000
    C132    C    0.14718   0.24085   0.73313   1.000
    C133    C    0.14714   0.74084   0.73309   1.000
    C134    C    0.64713   0.24084   0.73310   1.000
    C135    C    0.64715   0.74085   0.73311   1.000
    C136    C    0.16899   0.09539   0.41978   1.000
    C137    C    0.16900   0.59539   0.41978   1.000
    C138    C    0.66898   0.09538   0.41979   1.000
    C139    C    0.66900   0.59539   0.41976   1.000
    C140    C    0.39585   0.25151   0.51225   1.000
    C141    C    0.39586   0.75152   0.51225   1.000
    C142    C    0.89584   0.25151   0.51224   1.000
    C143    C    0.89585   0.75153   0.51226   1.000
    C144    C    0.41953   0.41216   0.32830   1.000
    C145    C    0.41953   0.91216   0.32829   1.000
    C146    C    0.91952   0.41215   0.32830   1.000
    C147    C    0.91953   0.91216   0.32831   1.000
    C148    C    0.01200   0.25975   0.20780   1.000
    C149    C    0.01198   0.75976   0.20780   1.000
    C150    C    0.51197   0.25975   0.20782   1.000
    C151    C    0.51199   0.75976   0.20780   1.000
    C152    C    0.35863   0.28845   0.05111   1.000
    C153    C    0.35863   0.78846   0.05108   1.000
    C154    C    0.85861   0.28845   0.05112   1.000
    C155    C    0.85862   0.78844   0.05116   1.000
    C156    C    0.06681   0.47613   0.18132   1.000
    C157    C    0.06681   0.97614   0.18133   1.000
    C158    C    0.56681   0.47613   0.18131   1.000
    C159    C    0.56682   0.97613   0.18131   1.000
    C160    C    0.05078   0.37180   0.96650   1.000
    C161    C    0.05075   0.87181   0.96647   1.000
    C162    C    0.55077   0.37180   0.96652   1.000
    C163    C    0.55078   0.87181   0.96652   1.000
    C164    C    0.36309   0.46504   0.05733   1.000
    C165    C    0.36310   0.96506   0.05730   1.000
    C166    C    0.86308   0.46504   0.05732   1.000
    C167    C    0.86308   0.96504   0.05733   1.000
    C168    C    0.16956   0.33794   0.17170   1.000
    C169    C    0.16957   0.83796   0.17170   1.000
    C170    C    0.66955   0.33794   0.17176   1.000
    C171    C    0.66956   0.83795   0.17170   1.000
    C172    C    0.26190   0.49026   0.29223   1.000
    C173    C    0.26193   0.99027   0.29224   1.000
    C174    C    0.76192   0.49026   0.29225   1.000
    C175    C    0.76191   0.99027   0.29224   1.000
    C176    C    0.10858   0.46150   0.44940   1.000
    C177    C    0.10858   0.96152   0.44940   1.000
    C178    C    0.60857   0.46151   0.44940   1.000
    C179    C    0.60857   0.96153   0.44937   1.000
    C180    C    0.31687   0.27386   0.31865   1.000
    C181    C    0.31687   0.77387   0.31860   1.000
    C182    C    0.81686   0.27386   0.31865   1.000
    C183    C    0.81688   0.77387   0.31866   1.000
    C184    C    0.30084   0.37817   0.53334   1.000
    C185    C    0.30085   0.87817   0.53334   1.000
    C186    C    0.80082   0.37816   0.53336   1.000
    C187    C    0.80083   0.87817   0.53336   1.000
    C188    C    0.11312   0.28491   0.44262   1.000
    C189    C    0.11312   0.78492   0.44261   1.000
    C190    C    0.61311   0.28491   0.44262   1.000
    C191    C    0.61311   0.78492   0.44262   1.000
    C192    C    0.08046   0.08786   0.67160   1.000
    C193    C    0.08046   0.58787   0.67165   1.000
    C194    C    0.58045   0.08786   0.67166   1.000
    C195    C    0.58046   0.58787   0.67166   1.000
    C196    C    0.48798   0.24026   0.79210   1.000
    C197    C    0.48800   0.74027   0.79216   1.000
    C198    C    0.98795   0.24026   0.79218   1.000
    C199    C    0.98797   0.74027   0.79216   1.000
    C200    C    0.14137   0.21157   0.94880   1.000
    C201    C    0.14137   0.71158   0.94881   1.000
    C202    C    0.64135   0.21155   0.94888   1.000
    C203    C    0.64136   0.71157   0.94887   1.000
    C204    C    0.43320   0.02387   0.81861   1.000
    C205    C    0.43318   0.52389   0.81864   1.000
    C206    C    0.93317   0.02388   0.81864   1.000
    C207    C    0.93318   0.52389   0.81863   1.000
    C208    C    0.44922   0.12821   0.03346   1.000
    C209    C    0.44922   0.62822   0.03340   1.000
    C210    C    0.94920   0.12821   0.03344   1.000
    C211    C    0.94920   0.62822   0.03343   1.000
    C212    C    0.13690   0.03497   0.94263   1.000
    C213    C    0.13691   0.53498   0.94263   1.000
    C214    C    0.63689   0.03497   0.94263   1.000
    C215    C    0.63690   0.53498   0.94263   1.000
    C216    C    0.33043   0.16206   0.82820   1.000
    C217    C    0.33043   0.66207   0.82820   1.000
    C218    C    0.83042   0.16206   0.82820   1.000
    C219    C    0.83042   0.66207   0.82820   1.000
    C220    C    0.23806   0.00974   0.70769   1.000
    C221    C    0.23805   0.50975   0.70768   1.000
    C222    C    0.73805   0.00974   0.70770   1.000
    C223    C    0.73806   0.50975   0.70771   1.000
    C224    C    0.39141   0.03853   0.55051   1.000
    C225    C    0.39142   0.53851   0.55055   1.000
    C226    C    0.89140   0.03850   0.55056   1.000
    C227    C    0.89140   0.53851   0.55056   1.000
    C228    C    0.18312   0.22615   0.68131   1.000
    C229    C    0.18311   0.72615   0.68120   1.000
    C230    C    0.68309   0.22614   0.68129   1.000
    C231    C    0.68310   0.72615   0.68129   1.000
    C232    C    0.19915   0.12185   0.46660   1.000
    C233    C    0.19916   0.62186   0.46660   1.000
    C234    C    0.69914   0.12185   0.46661   1.000
    C235    C    0.69916   0.62186   0.46659   1.000
    C236    C    0.38687   0.21510   0.55730   1.000
    C237    C    0.38688   0.71511   0.55734   1.000
    C238    C    0.88686   0.21510   0.55734   1.000
    C239    C    0.88687   0.71511   0.55734   1.000
    C240    C    0.40516   0.40022   0.24595   1.000
    C241    C    0.40517   0.90022   0.24590   1.000
    C242    C    0.90515   0.40022   0.24595   1.000
    C243    C    0.90516   0.90023   0.24596   1.000
    C244    C    0.47551   0.40757   0.36448   1.000
    C245    C    0.47552   0.90757   0.36448   1.000
    C246    C    0.97550   0.40756   0.36449   1.000
    C247    C    0.97551   0.90757   0.36450   1.000
    C248    C    0.01041   0.31527   0.21398   1.000
    C249    C    0.01041   0.81527   0.21398   1.000
    C250    C    0.51040   0.31527   0.21399   1.000
    C251    C    0.51040   0.81528   0.21398   1.000
    C252    C    0.00007   0.22996   0.13860   1.000
    C253    C    0.00008   0.72997   0.13861   1.000
    C254    C    0.50005   0.22996   0.13860   1.000
    C255    C    0.50006   0.72997   0.13862   1.000
    C256    C    0.37564   0.32620   0.11165   1.000
    C257    C    0.37564   0.82622   0.11161   1.000
    C258    C    0.87563   0.32619   0.11167   1.000
    C259    C    0.87564   0.82618   0.11171   1.000
    C260    C    0.39653   0.25986   0.00050   1.000
    C261    C    0.39653   0.75987   0.00048   1.000
    C262    C    0.89651   0.25986   0.00051   1.000
    C263    C    0.89651   0.75987   0.00052   1.000
    C264    C    0.04387   0.42490   0.19132   1.000
    C265    C    0.04387   0.92491   0.19133   1.000
    C266    C    0.54386   0.42490   0.19132   1.000
    C267    C    0.54387   0.92491   0.19132   1.000
    C268    C    0.05323   0.01040   0.11992   1.000
    C269    C    0.05324   0.51040   0.11991   1.000
    C270    C    0.55324   0.01039   0.11990   1.000
    C271    C    0.55324   0.51040   0.11991   1.000
    C272    C    0.01367   0.34277   0.02030   1.000
    C273    C    0.01368   0.84278   0.02029   1.000
    C274    C    0.51366   0.34277   0.02030   1.000
    C275    C    0.51367   0.84278   0.02030   1.000
    C276    C    0.05586   0.42546   0.96396   1.000
    C277    C    0.05586   0.92546   0.96395   1.000
    C278    C    0.55585   0.42545   0.96395   1.000
    C279    C    0.55586   0.92546   0.96390   1.000
    C280    C    0.42375   0.44822   0.06270   1.000
    C281    C    0.42375   0.94823   0.06270   1.000
    C282    C    0.92374   0.44822   0.06275   1.000
    C283    C    0.92374   0.94822   0.06275   1.000
    C284    C    0.31418   0.44467   0.09784   1.000
    C285    C    0.31419   0.94469   0.09784   1.000
    C286    C    0.81417   0.44467   0.09784   1.000
    C287    C    0.81418   0.94468   0.09784   1.000
    C288    C    0.15518   0.34987   0.25413   1.000
    C289    C    0.15518   0.84988   0.25413   1.000
    C290    C    0.65517   0.34987   0.25413   1.000
    C291    C    0.65517   0.84987   0.25413   1.000
    C292    C    0.22555   0.34249   0.13555   1.000
    C293    C    0.22556   0.84250   0.13555   1.000
    C294    C    0.72554   0.34250   0.13555   1.000
    C295    C    0.72555   0.84250   0.13555   1.000
    C296    C    0.26014   0.43476   0.28596   1.000
    C297    C    0.26016   0.93477   0.28597   1.000
    C298    C    0.76014   0.43476   0.28597   1.000
    C299    C    0.76014   0.93477   0.28597   1.000
    C300    C    0.24999   0.02005   0.36144   1.000
    C301    C    0.24999   0.52006   0.36140   1.000
    C302    C    0.74997   0.02005   0.36145   1.000
    C303    C    0.74999   0.52006   0.36145   1.000
    C304    C    0.12551   0.42352   0.38914   1.000
    C305    C    0.12551   0.92353   0.38915   1.000
    C306    C    0.62550   0.42351   0.38910   1.000
    C307    C    0.62551   0.92354   0.38910   1.000
    C308    C    0.14654   0.49020   0.49965   1.000
    C309    C    0.14654   0.99021   0.49966   1.000
    C310    C    0.64653   0.49021   0.49966   1.000
    C311    C    0.64653   0.99021   0.49965   1.000
    C312    C    0.29390   0.32512   0.30869   1.000
    C313    C    0.29390   0.82513   0.30869   1.000
    C314    C    0.79389   0.32512   0.30869   1.000
    C315    C    0.79389   0.82513   0.30869   1.000
    C316    C    0.30329   0.23959   0.38003   1.000
    C317    C    0.30329   0.73959   0.38003   1.000
    C318    C    0.80328   0.23958   0.38003   1.000
    C319    C    0.80329   0.73959   0.38004   1.000
    C320    C    0.26372   0.40723   0.47962   1.000
    C321    C    0.26373   0.90724   0.47960   1.000
    C322    C    0.76371   0.40723   0.47963   1.000
    C323    C    0.76372   0.90724   0.47963   1.000
    C324    C    0.30584   0.32450   0.53602   1.000
    C325    C    0.30584   0.82451   0.53602   1.000
    C326    C    0.80583   0.32450   0.53603   1.000
    C327    C    0.80583   0.82451   0.53600   1.000
    C328    C    0.17375   0.30174   0.43721   1.000
    C329    C    0.17375   0.80174   0.43721   1.000
    C330    C    0.67374   0.30174   0.43721   1.000
    C331    C    0.67374   0.80175   0.43721   1.000
    C332    C    0.06419   0.30529   0.40213   1.000
    C333    C    0.06419   0.80529   0.40210   1.000
    C334    C    0.56418   0.30529   0.40213   1.000
    C335    C    0.56418   0.80530   0.40213   1.000
    C336    C    0.09483   0.09980   0.75401   1.000
    C337    C    0.09483   0.59980   0.75400   1.000
    C338    C    0.59482   0.09980   0.75401   1.000
    C339    C    0.59482   0.59981   0.75401   1.000
    C340    C    0.02448   0.09245   0.63547   1.000
    C341    C    0.02448   0.59246   0.63546   1.000
    C342    C    0.52447   0.09245   0.63547   1.000
    C343    C    0.52448   0.59246   0.63547   1.000
    C344    C    0.48958   0.18475   0.78598   1.000
    C345    C    0.48959   0.68475   0.78598   1.000
    C346    C    0.98957   0.18475   0.78598   1.000
    C347    C    0.98957   0.68475   0.78597   1.000
    C348    C    0.49992   0.27005   0.86136   1.000
    C349    C    0.49993   0.77006   0.86134   1.000
    C350    C    0.99990   0.27005   0.86135   1.000
    C351    C    0.99990   0.77006   0.86134   1.000
    C352    C    0.12435   0.17381   0.88832   1.000
    C353    C    0.12435   0.67384   0.88825   1.000
    C354    C    0.62434   0.17380   0.88835   1.000
    C355    C    0.62435   0.67381   0.88834   1.000
    C356    C    0.10347   0.24015   0.99946   1.000
    C357    C    0.10347   0.74016   0.99944   1.000
    C358    C    0.60345   0.24015   0.99948   1.000
    C359    C    0.60346   0.74016   0.99947   1.000
    C360    C    0.45612   0.07511   0.80863   1.000
    C361    C    0.45612   0.57512   0.80860   1.000
    C362    C    0.95611   0.07511   0.80864   1.000
    C363    C    0.95611   0.57512   0.80863   1.000
    C364    C    0.44675   0.48962   0.88004   1.000
    C365    C    0.44677   0.98962   0.88003   1.000
    C366    C    0.94675   0.48961   0.88004   1.000
    C367    C    0.94674   0.98963   0.88005   1.000
    C368    C    0.48632   0.15724   0.97967   1.000
    C369    C    0.48632   0.65725   0.97966   1.000
    C370    C    0.98631   0.15724   0.97966   1.000
    C371    C    0.98631   0.65725   0.97965   1.000
    C372    C    0.44413   0.07455   0.03601   1.000
    C373    C    0.44414   0.57456   0.03600   1.000
    C374    C    0.94412   0.07455   0.03600   1.000
    C375    C    0.94412   0.57456   0.03599   1.000
    C376    C    0.07624   0.05179   0.93720   1.000
    C377    C    0.07625   0.55180   0.93720   1.000
    C378    C    0.57623   0.05179   0.93720   1.000
    C379    C    0.57624   0.55180   0.93720   1.000
    C380    C    0.18581   0.05533   0.90210   1.000
    C381    C    0.18581   0.55535   0.90210   1.000
    C382    C    0.68580   0.05533   0.90210   1.000
    C383    C    0.68581   0.55534   0.90212   1.000
    C384    C    0.34481   0.15014   0.74583   1.000
    C385    C    0.34482   0.65015   0.74583   1.000
    C386    C    0.84480   0.15014   0.74583   1.000
    C387    C    0.84480   0.65015   0.74583   1.000
    C388    C    0.27444   0.15751   0.86440   1.000
    C389    C    0.27444   0.65752   0.86440   1.000
    C390    C    0.77443   0.15752   0.86441   1.000
    C391    C    0.77443   0.65752   0.86441   1.000
    C392    C    0.23984   0.06525   0.71398   1.000
    C393    C    0.23984   0.56526   0.71398   1.000
    C394    C    0.73983   0.06525   0.71398   1.000
    C395    C    0.73983   0.56526   0.71398   1.000
    C396    C    0.24999   0.47996   0.63848   1.000
    C397    C    0.25000   0.97997   0.63849   1.000
    C398    C    0.74999   0.47996   0.63850   1.000
    C399    C    0.74999   0.97997   0.63849   1.000
    C400    C    0.37449   0.07651   0.61070   1.000
    C401    C    0.37449   0.57651   0.61079   1.000
    C402    C    0.87447   0.07649   0.61081   1.000
    C403    C    0.87447   0.57650   0.61080   1.000
    C404    C    0.35345   0.00981   0.50028   1.000
    C405    C    0.35346   0.50982   0.50029   1.000
    C406    C    0.85344   0.00980   0.50030   1.000
    C407    C    0.85345   0.50981   0.50030   1.000
    C408    C    0.20610   0.17489   0.69127   1.000
    C409    C    0.20610   0.67490   0.69127   1.000
    C410    C    0.70608   0.17489   0.69127   1.000
    C411    C    0.70609   0.67490   0.69127   1.000
    C412    C    0.19671   0.26043   0.61993   1.000
    C413    C    0.19670   0.76043   0.61992   1.000
    C414    C    0.69668   0.26042   0.61992   1.000
    C415    C    0.69669   0.76043   0.61993   1.000
    C416    C    0.23627   0.09278   0.52032   1.000
    C417    C    0.23627   0.59279   0.52032   1.000
    C418    C    0.73626   0.09278   0.52030   1.000
    C419    C    0.73626   0.59279   0.52032   1.000
    C420    C    0.19415   0.17551   0.46393   1.000
    C421    C    0.19416   0.67552   0.46393   1.000
    C422    C    0.69414   0.17551   0.46394   1.000
    C423    C    0.69415   0.67552   0.46393   1.000
    C424    C    0.32624   0.19828   0.56275   1.000
    C425    C    0.32625   0.69829   0.56275   1.000
    C426    C    0.82623   0.19827   0.56275   1.000
    C427    C    0.82624   0.69828   0.56275   1.000
    C428    C    0.43580   0.19473   0.59783   1.000
    C429    C    0.43581   0.69473   0.59783   1.000
    C430    C    0.93579   0.19472   0.59783   1.000
    C431    C    0.93580   0.69473   0.59783   1.000
    O432    O    0.44826   0.75494   0.00024   1.000
    O433    O    0.50003   0.73999   0.06931   1.000
    O434    O    0.49997   0.76004   0.93067   1.000
    O435    O    0.55173   0.74508   0.99973   1.000
    O436    O    0.47207   0.53729   0.01800   1.000
    O437    O    0.52662   0.50520   0.05995   1.000
    O438    O    0.47337   0.49481   0.94002   1.000
    O439    O    0.52792   0.46273   0.98197   1.000
    O440    O    0.37758   0.77417   0.02578   1.000
    O441    O    0.37758   0.27416   0.02580   1.000
    O442    O    0.44826   0.25493   0.00025   1.000
    O443    O    0.87756   0.27415   0.02581   1.000
    O444    O    0.94826   0.25493   0.00025   1.000
    O445    O    0.87756   0.77416   0.02584   1.000
    O446    O    0.94826   0.75494   0.00025   1.000
    O447    O    0.85857   0.48323   0.03475   1.000
    O448    O    0.35858   0.48324   0.03476   1.000
    O449    O    0.85857   0.98323   0.03476   1.000
    O450    O    0.35858   0.98325   0.03476   1.000
    O451    O    0.98886   0.86012   0.07495   1.000
    O452    O    0.03221   0.85730   0.99338   1.000
    O453    O    0.98885   0.36011   0.07496   1.000
    O454    O    0.03222   0.35729   0.99340   1.000
    O455    O    0.48885   0.36011   0.07496   1.000
    O456    O    0.53222   0.35728   0.99341   1.000
    O457    O    0.48886   0.86012   0.07495   1.000
    O458    O    0.53223   0.85729   0.99341   1.000
    O459    O    0.44668   0.60139   0.03470   1.000
    O460    O    0.43419   0.64147   0.05691   1.000
    O461    O    0.46777   0.64273   0.00653   1.000
    O462    O    0.94666   0.60139   0.03471   1.000
    O463    O    0.93417   0.64147   0.05691   1.000
    O464    O    0.96776   0.64273   0.00654   1.000
    O465    O    0.94666   0.10138   0.03472   1.000
    O466    O    0.93416   0.14146   0.05692   1.000
    O467    O    0.96775   0.14272   0.00655   1.000
    O468    O    0.44668   0.10138   0.03473   1.000
    O469    O    0.43420   0.14146   0.05696   1.000
    O470    O    0.46777   0.14272   0.00656   1.000
    O471    O    0.97206   0.53729   0.01799   1.000
    O472    O    0.97206   0.03728   0.01800   1.000
    O473    O    0.47206   0.03728   0.01800   1.000
    O474    O    0.33172   0.78475   0.04780   1.000
    O475    O    0.33171   0.28474   0.04783   1.000
    O476    O    0.83170   0.28473   0.04785   1.000
    O477    O    0.83170   0.78473   0.04789   1.000
    O478    O    0.36714   0.80734   0.08134   1.000
    O479    O    0.36713   0.30732   0.08138   1.000
    O480    O    0.86712   0.30732   0.08139   1.000
    O481    O    0.86713   0.80731   0.08143   1.000
    O482    O    0.39342   0.95665   0.06000   1.000
    O483    O    0.33864   0.95487   0.07757   1.000
    O484    O    0.89341   0.45663   0.06003   1.000
    O485    O    0.83862   0.45486   0.07758   1.000
    O486    O    0.89341   0.95663   0.06004   1.000
    O487    O    0.83863   0.95486   0.07758   1.000
    O488    O    0.39342   0.45663   0.06001   1.000
    O489    O    0.33864   0.45486   0.07758   1.000
    O490    O    0.44389   0.41283   0.09616   1.000
    O491    O    0.44390   0.91285   0.09615   1.000
    O492    O    0.94389   0.91284   0.09618   1.000
    O493    O    0.94388   0.41283   0.09618   1.000
    O494    O    0.31144   0.91225   0.14452   1.000
    O495    O    0.81143   0.91224   0.14453   1.000
    O496    O    0.81142   0.41224   0.14452   1.000
    O497    O    0.31143   0.41224   0.14452   1.000
    O498    O    0.41984   0.85184   0.12060   1.000
    O499    O    0.41984   0.35182   0.12063   1.000
    O500    O    0.91983   0.35182   0.12064   1.000
    O501    O    0.91984   0.85182   0.12066   1.000
    O502    O    0.56003   0.99326   0.15060   1.000
    O503    O    0.52661   0.00519   0.05994   1.000
    O504    O    0.56002   0.49326   0.15061   1.000
    O505    O    0.06002   0.49327   0.15061   1.000
    O506    O    0.02662   0.50521   0.05995   1.000
    O507    O    0.06002   0.99327   0.15062   1.000
    O508    O    0.02661   0.00520   0.05996   1.000
    O509    O    0.14919   0.32990   0.15020   1.000
    O510    O    0.64919   0.82991   0.15022   1.000
    O511    O    0.14920   0.82992   0.15022   1.000
    O512    O    0.64918   0.32990   0.15026   1.000
    O513    O    0.50396   0.90118   0.16046   1.000
    O514    O    0.43461   0.88884   0.18775   1.000
    O515    O    0.50395   0.40117   0.16047   1.000
    O516    O    0.43460   0.38883   0.18778   1.000
    O517    O    0.00395   0.40117   0.16047   1.000
    O518    O    0.93459   0.38883   0.18778   1.000
    O519    O    0.00395   0.90118   0.16047   1.000
    O520    O    0.93460   0.88884   0.18779   1.000
    O521    O    0.69755   0.84023   0.15362   1.000
    O522    O    0.76711   0.86115   0.16338   1.000
    O523    O    0.69755   0.34022   0.15365   1.000
    O524    O    0.76711   0.36115   0.16338   1.000
    O525    O    0.19756   0.84023   0.15362   1.000
    O526    O    0.26712   0.86116   0.16338   1.000
    O527    O    0.19756   0.34022   0.15362   1.000
    O528    O    0.26712   0.36115   0.16338   1.000
    O529    O    0.00603   0.24485   0.17320   1.000
    O530    O    0.00004   0.23998   0.06930   1.000
    O531    O    0.50601   0.24486   0.17321   1.000
    O532    O    0.50002   0.23998   0.06930   1.000
    O533    O    0.00603   0.74486   0.17320   1.000
    O534    O    0.00004   0.73999   0.06930   1.000
    O535    O    0.50602   0.74486   0.17321   1.000
    O536    O    0.66237   0.84391   0.21291   1.000
    O537    O    0.16238   0.84392   0.21291   1.000
    O538    O    0.16237   0.34391   0.21291   1.000
    O539    O    0.66236   0.34391   0.21294   1.000
    O540    O    0.55534   0.95052   0.18631   1.000
    O541    O    0.58478   0.98348   0.20720   1.000
    O542    O    0.55534   0.45051   0.18631   1.000
    O543    O    0.58478   0.48347   0.20720   1.000
    O544    O    0.05534   0.45051   0.18632   1.000
    O545    O    0.08477   0.48348   0.20721   1.000
    O546    O    0.05534   0.95052   0.18633   1.000
    O547    O    0.08476   0.98349   0.20723   1.000
    O548    O    0.28441   0.40728   0.23858   1.000
    O549    O    0.28442   0.90729   0.23859   1.000
    O550    O    0.78441   0.40728   0.23859   1.000
    O551    O    0.78441   0.90729   0.23859   1.000
    O552    O    0.01120   0.28751   0.21089   1.000
    O553    O    0.01852   0.24849   0.23903   1.000
    O554    O    0.51119   0.78752   0.21089   1.000
    O555    O    0.51851   0.74850   0.23903   1.000
    O556    O    0.01120   0.78751   0.21089   1.000
    O557    O    0.01849   0.74849   0.23904   1.000
    O558    O    0.51118   0.28751   0.21090   1.000
    O559    O    0.51848   0.24849   0.23905   1.000
    O560    O    0.03455   0.34273   0.26139   1.000
    O561    O    0.03456   0.84274   0.26141   1.000
    O562    O    0.53454   0.84274   0.26141   1.000
    O563    O    0.53454   0.34274   0.26142   1.000
    O564    O    0.26848   0.50152   0.26101   1.000
    O565    O    0.76847   0.00152   0.26102   1.000
    O566    O    0.26852   0.00152   0.26103   1.000
    O567    O    0.76852   0.50152   0.26104   1.000
    O568    O    0.41235   0.90619   0.28709   1.000
    O569    O    0.41235   0.40619   0.28712   1.000
    O570    O    0.91234   0.40618   0.28712   1.000
    O571    O    0.91234   0.90619   0.28713   1.000
    O572    O    0.68459   0.36121   0.31230   1.000
    O573    O    0.18461   0.86122   0.31230   1.000
    O574    O    0.68460   0.86122   0.31230   1.000
    O575    O    0.18460   0.36121   0.31230   1.000
    O576    O    0.33485   0.76652   0.29271   1.000
    O577    O    0.83484   0.26651   0.29274   1.000
    O578    O    0.33485   0.26651   0.29275   1.000
    O579    O    0.83486   0.76653   0.29276   1.000
    O580    O    0.26102   0.46251   0.28909   1.000
    O581    O    0.76103   0.96252   0.28910   1.000
    O582    O    0.76103   0.46251   0.28911   1.000
    O583    O    0.26104   0.96252   0.28910   1.000
    O584    O    0.25594   0.50516   0.32681   1.000
    O585    O    0.75594   0.00516   0.32684   1.000
    O586    O    0.25596   0.00516   0.32684   1.000
    O587    O    0.75595   0.50516   0.32685   1.000
    O588    O    0.30539   0.29949   0.31367   1.000
    O589    O    0.25396   0.34884   0.33958   1.000
    O590    O    0.30539   0.79950   0.31364   1.000
    O591    O    0.25397   0.84885   0.33958   1.000
    O592    O    0.80537   0.29949   0.31367   1.000
    O593    O    0.75395   0.34884   0.33958   1.000
    O594    O    0.80538   0.79950   0.31367   1.000
    O595    O    0.75395   0.84885   0.33958   1.000
    O596    O    0.01710   0.38888   0.33664   1.000
    O597    O    0.06144   0.33774   0.35546   1.000
    O598    O    0.51710   0.88889   0.33666   1.000
    O599    O    0.56144   0.83775   0.35548   1.000
    O600    O    0.51710   0.38889   0.33666   1.000
    O601    O    0.56143   0.33774   0.35549   1.000
    O602    O    0.01710   0.88889   0.33667   1.000
    O603    O    0.06144   0.83775   0.35547   1.000
    O604    O    0.31008   0.75673   0.34931   1.000
    O605    O    0.31008   0.25672   0.34934   1.000
    O606    O    0.81007   0.25672   0.34934   1.000
    O607    O    0.81008   0.75673   0.34935   1.000
    O608    O    0.44753   0.90987   0.34638   1.000
    O609    O    0.39916   0.92024   0.34980   1.000
    O610    O    0.94751   0.40986   0.34639   1.000
    O611    O    0.89914   0.42022   0.34981   1.000
    O612    O    0.44752   0.40986   0.34639   1.000
    O613    O    0.39916   0.42024   0.34981   1.000
    O614    O    0.94752   0.90987   0.34640   1.000
    O615    O    0.89915   0.92023   0.34982   1.000
    O616    O    0.24999   0.51004   0.43068   1.000
    O617    O    0.24999   0.01003   0.43070   1.000
    O618    O    0.74998   0.01003   0.43071   1.000
    O619    O    0.74999   0.51003   0.43071   1.000
    O620    O    0.16977   0.39804   0.37981   1.000
    O621    O    0.19389   0.33715   0.40384   1.000
    O622    O    0.23887   0.38989   0.42505   1.000
    O623    O    0.66976   0.89805   0.37979   1.000
    O624    O    0.69388   0.83715   0.40384   1.000
    O625    O    0.73887   0.88990   0.42505   1.000
    O626    O    0.66976   0.39803   0.37979   1.000
    O627    O    0.69388   0.33715   0.40384   1.000
    O628    O    0.73886   0.38989   0.42505   1.000
    O629    O    0.16977   0.89804   0.37981   1.000
    O630    O    0.19389   0.83715   0.40384   1.000
    O631    O    0.23888   0.88990   0.42504   1.000
    O632    O    0.27664   0.24480   0.44000   1.000
    O633    O    0.27665   0.74480   0.44000   1.000
    O634    O    0.77663   0.24479   0.44000   1.000
    O635    O    0.77664   0.74480   0.44001   1.000
    O636    O    0.61704   0.94253   0.41923   1.000
    O637    O    0.61703   0.44251   0.41925   1.000
    O638    O    0.11704   0.44251   0.41927   1.000
    O639    O    0.11705   0.94252   0.41927   1.000
    O640    O    0.08866   0.79510   0.42235   1.000
    O641    O    0.58864   0.29510   0.42237   1.000
    O642    O    0.58865   0.79511   0.42237   1.000
    O643    O    0.08865   0.29510   0.42237   1.000
    O644    O    0.68408   0.60862   0.44317   1.000
    O645    O    0.18407   0.10862   0.44319   1.000
    O646    O    0.18408   0.60862   0.44319   1.000
    O647    O    0.68406   0.10861   0.44320   1.000
    O648    O    0.14343   0.29332   0.43991   1.000
    O649    O    0.14344   0.79333   0.43991   1.000
    O650    O    0.64342   0.29332   0.43991   1.000
    O651    O    0.64343   0.79333   0.43991   1.000
    O652    O    0.10863   0.76671   0.46515   1.000
    O653    O    0.10863   0.26671   0.46516   1.000
    O654    O    0.60862   0.26670   0.46516   1.000
    O655    O    0.60862   0.76671   0.46516   1.000
    O656    O    0.58166   0.96531   0.45269   1.000
    O657    O    0.62755   0.97587   0.47451   1.000
    O658    O    0.58166   0.46529   0.45272   1.000
    O659    O    0.62755   0.47586   0.47453   1.000
    O660    O    0.08168   0.96529   0.45272   1.000
    O661    O    0.12756   0.97587   0.47453   1.000
    O662    O    0.08167   0.46528   0.45272   1.000
    O663    O    0.12756   0.47585   0.47452   1.000
    O664    O    0.69665   0.64869   0.46526   1.000
    O665    O    0.72207   0.71277   0.48195   1.000
    O666    O    0.19665   0.14868   0.46526   1.000
    O667    O    0.22207   0.21276   0.48195   1.000
    O668    O    0.19666   0.64869   0.46526   1.000
    O669    O    0.22208   0.71277   0.48195   1.000
    O670    O    0.69664   0.14868   0.46527   1.000
    O671    O    0.72206   0.21276   0.48196   1.000
    O672    O    0.71771   0.60732   0.49345   1.000
    O673    O    0.21771   0.10732   0.49346   1.000
    O674    O    0.21771   0.60732   0.49346   1.000
    O675    O    0.71770   0.10731   0.49345   1.000
    O676    O    0.28229   0.89271   0.50647   1.000
    O677    O    0.28228   0.39270   0.50648   1.000
    O678    O    0.78227   0.39270   0.50649   1.000
    O679    O    0.78227   0.89271   0.50649   1.000
    O680    O    0.19827   0.49511   0.49981   1.000
    O681    O    0.69826   0.99511   0.49981   1.000
    O682    O    0.19827   0.99511   0.49981   1.000
    O683    O    0.69826   0.49511   0.49982   1.000
    O684    O    0.30172   0.00491   0.50012   1.000
    O685    O    0.25000   0.98999   0.56923   1.000
    O686    O    0.30173   0.50491   0.50013   1.000
    O687    O    0.25000   0.48999   0.56922   1.000
    O688    O    0.80171   0.00490   0.50013   1.000
    O689    O    0.74999   0.98999   0.56923   1.000
    O690    O    0.77791   0.28725   0.51800   1.000
    O691    O    0.72333   0.25521   0.55995   1.000
    O692    O    0.27792   0.78726   0.51800   1.000
    O693    O    0.22335   0.75522   0.55995   1.000
    O694    O    0.77791   0.78726   0.51799   1.000
    O695    O    0.72334   0.75522   0.55995   1.000
    O696    O    0.27792   0.28725   0.51800   1.000
    O697    O    0.22335   0.25522   0.55995   1.000
    O698    O    0.80172   0.50491   0.50014   1.000
    O699    O    0.74999   0.48998   0.56924   1.000
    O700    O    0.37243   0.02417   0.52539   1.000
    O701    O    0.37244   0.52416   0.52542   1.000
    O702    O    0.87243   0.52416   0.52543   1.000
    O703    O    0.87242   0.02415   0.52543   1.000
    O704    O    0.89135   0.23330   0.53479   1.000
    O705    O    0.39136   0.23331   0.53477   1.000
    O706    O    0.39137   0.73332   0.53479   1.000
    O707    O    0.89136   0.73332   0.53480   1.000
    O708    O    0.76111   0.11012   0.57489   1.000
    O709    O    0.76111   0.61013   0.57490   1.000
    O710    O    0.26112   0.61013   0.57489   1.000
    O711    O    0.26112   0.11012   0.57490   1.000
    O712    O    0.30335   0.85134   0.53468   1.000
    O713    O    0.31593   0.89141   0.55675   1.000
    O714    O    0.30334   0.35133   0.53468   1.000
    O715    O    0.31592   0.39140   0.55675   1.000
    O716    O    0.80332   0.35133   0.53469   1.000
    O717    O    0.81589   0.39140   0.55678   1.000
    O718    O    0.80333   0.85134   0.53468   1.000
    O719    O    0.81591   0.89141   0.55677   1.000
    O720    O    0.41832   0.03476   0.54716   1.000
    O721    O    0.41832   0.53473   0.54723   1.000
    O722    O    0.91831   0.03472   0.54724   1.000
    O723    O    0.91831   0.53473   0.54724   1.000
    O724    O    0.38295   0.05752   0.58060   1.000
    O725    O    0.38295   0.55751   0.58067   1.000
    O726    O    0.88294   0.05750   0.58068   1.000
    O727    O    0.88294   0.55751   0.58068   1.000
    O728    O    0.35656   0.20669   0.56002   1.000
    O729    O    0.41134   0.20492   0.57756   1.000
    O730    O    0.85655   0.70670   0.56004   1.000
    O731    O    0.91133   0.70492   0.57758   1.000
    O732    O    0.85655   0.20669   0.56004   1.000
    O733    O    0.91133   0.20491   0.57758   1.000
    O734    O    0.35656   0.70670   0.56004   1.000
    O735    O    0.41134   0.70492   0.57758   1.000
    O736    O    0.30611   0.66288   0.59611   1.000
    O737    O    0.30610   0.16287   0.59611   1.000
    O738    O    0.80609   0.16286   0.59611   1.000
    O739    O    0.80610   0.66287   0.59611   1.000
    O740    O    0.43855   0.16227   0.64447   1.000
    O741    O    0.43856   0.66228   0.64447   1.000
    O742    O    0.93854   0.16227   0.64447   1.000
    O743    O    0.93854   0.66227   0.64447   1.000
    O744    O    0.33023   0.10198   0.62009   1.000
    O745    O    0.33023   0.60199   0.62013   1.000
    O746    O    0.83022   0.60198   0.62014   1.000
    O747    O    0.83021   0.10197   0.62014   1.000
    O748    O    0.18990   0.74329   0.65056   1.000
    O749    O    0.68989   0.24328   0.65060   1.000
    O750    O    0.18992   0.24329   0.65062   1.000
    O751    O    0.68990   0.74329   0.65061   1.000
    O752    O    0.60083   0.07979   0.65013   1.000
    O753    O    0.10084   0.57980   0.65013   1.000
    O754    O    0.60084   0.57981   0.65014   1.000
    O755    O    0.10084   0.07979   0.65011   1.000
    O756    O    0.24604   0.65118   0.66037   1.000
    O757    O    0.31539   0.63881   0.68765   1.000
    O758    O    0.24603   0.15117   0.66037   1.000
    O759    O    0.31539   0.13880   0.68765   1.000
    O760    O    0.74602   0.15117   0.66037   1.000
    O761    O    0.81538   0.13880   0.68765   1.000
    O762    O    0.74603   0.65118   0.66037   1.000
    O763    O    0.81538   0.63881   0.68765   1.000
    O764    O    0.05247   0.59016   0.65355   1.000
    O765    O    0.98289   0.61114   0.66328   1.000
    O766    O    0.55247   0.59017   0.65356   1.000
    O767    O    0.48289   0.61114   0.66329   1.000
    O768    O    0.05247   0.09016   0.65353   1.000
    O769    O    0.98288   0.11113   0.66329   1.000
    O770    O    0.55246   0.09016   0.65356   1.000
    O771    O    0.48288   0.11113   0.66329   1.000
    O772    O    0.24402   0.49486   0.67308   1.000
    O773    O    0.74402   0.99486   0.67309   1.000
    O774    O    0.24403   0.99486   0.67309   1.000
    O775    O    0.74402   0.49486   0.67310   1.000
    O776    O    0.08764   0.09383   0.71280   1.000
    O777    O    0.08765   0.59383   0.71282   1.000
    O778    O    0.58764   0.59384   0.71283   1.000
    O779    O    0.58763   0.09383   0.71283   1.000
    O780    O    0.19460   0.70052   0.68623   1.000
    O781    O    0.16512   0.73350   0.70714   1.000
    O782    O    0.69459   0.70053   0.68628   1.000
    O783    O    0.66513   0.73350   0.70720   1.000
    O784    O    0.69459   0.20052   0.68628   1.000
    O785    O    0.66511   0.23349   0.70719   1.000
    O786    O    0.19461   0.20052   0.68629   1.000
    O787    O    0.16515   0.23350   0.70722   1.000
    O788    O    0.96543   0.65728   0.73854   1.000
    O789    O    0.96543   0.15728   0.73854   1.000
    O790    O    0.46545   0.65729   0.73854   1.000
    O791    O    0.46544   0.15728   0.73854   1.000
    O792    O    0.23895   0.53751   0.71083   1.000
    O793    O    0.23145   0.49849   0.73888   1.000
    O794    O    0.23895   0.03750   0.71083   1.000
    O795    O    0.23147   0.99849   0.73889   1.000
    O796    O    0.73894   0.03750   0.71084   1.000
    O797    O    0.73146   0.99849   0.73890   1.000
    O798    O    0.73894   0.53751   0.71084   1.000
    O799    O    0.73147   0.49850   0.73891   1.000
    O800    O    0.71557   0.59274   0.76136   1.000
    O801    O    0.71556   0.09273   0.76136   1.000
    O802    O    0.21557   0.09273   0.76136   1.000
    O803    O    0.21558   0.59274   0.76136   1.000
    O804    O    0.98144   0.75153   0.76058   1.000
    O805    O    0.48148   0.75153   0.76093   1.000
    O806    O    0.98142   0.25152   0.76095   1.000
    O807    O    0.48144   0.25153   0.76091   1.000
    O808    O    0.33762   0.15610   0.78701   1.000
    O809    O    0.33763   0.65611   0.78701   1.000
    O810    O    0.83761   0.15610   0.78701   1.000
    O811    O    0.83761   0.65611   0.78701   1.000
    O812    O    0.06539   0.61119   0.81216   1.000
    O813    O    0.56538   0.61119   0.81217   1.000
    O814    O    0.56538   0.11118   0.81217   1.000
    O815    O    0.06539   0.11118   0.81217   1.000
    O816    O    0.41525   0.01653   0.79270   1.000
    O817    O    0.91522   0.51654   0.79273   1.000
    O818    O    0.41522   0.51655   0.79274   1.000
    O819    O    0.91520   0.01654   0.79274   1.000
    O820    O    0.98877   0.71251   0.78906   1.000
    O821    O    0.48878   0.21250   0.78904   1.000
    O822    O    0.48880   0.71251   0.78907   1.000
    O823    O    0.98876   0.21250   0.78908   1.000
    O824    O    0.49395   0.25515   0.82673   1.000
    O825    O    0.99393   0.75516   0.82675   1.000
    O826    O    0.49397   0.75516   0.82675   1.000
    O827    O    0.99393   0.25515   0.82676   1.000
    O828    O    0.44465   0.54951   0.81362   1.000
    O829    O    0.49603   0.59885   0.83947   1.000
    O830    O    0.44466   0.04949   0.81362   1.000
    O831    O    0.49603   0.09884   0.83948   1.000
    O832    O    0.94465   0.54950   0.81363   1.000
    O833    O    0.99603   0.59885   0.83948   1.000
    O834    O    0.94464   0.04950   0.81364   1.000
    O835    O    0.99603   0.09884   0.83949   1.000
    O836    O    0.23288   0.63887   0.83657   1.000
    O837    O    0.18856   0.58779   0.85542   1.000
    O838    O    0.23287   0.13886   0.83657   1.000
    O839    O    0.18856   0.08777   0.85542   1.000
    O840    O    0.73287   0.63887   0.83658   1.000
    O841    O    0.68855   0.58778   0.85543   1.000
    O842    O    0.73286   0.13886   0.83658   1.000
    O843    O    0.68855   0.08777   0.85542   1.000
    O844    O    0.43999   0.00675   0.84932   1.000
    O845    O    0.93996   0.50675   0.84933   1.000
    O846    O    0.43997   0.50675   0.84934   1.000
    O847    O    0.93995   0.00676   0.84934   1.000
    O848    O    0.30243   0.15979   0.84630   1.000
    O849    O    0.35080   0.17010   0.84970   1.000
    O850    O    0.30244   0.65980   0.84630   1.000
    O851    O    0.35080   0.67011   0.84970   1.000
    O852    O    0.80242   0.15979   0.84630   1.000
    O853    O    0.85079   0.17010   0.84970   1.000
    O854    O    0.80243   0.65980   0.84630   1.000
    O855    O    0.85079   0.67012   0.84970   1.000
    O856    O    0.99995   0.76004   0.93066   1.000
    O857    O    0.99995   0.26003   0.93067   1.000
    O858    O    0.49996   0.26003   0.93068   1.000
    O859    O    0.08015   0.64821   0.87929   1.000
    O860    O    0.05610   0.58719   0.90376   1.000
    O861    O    0.01114   0.63991   0.92499   1.000
    O862    O    0.08015   0.14818   0.87933   1.000
    O863    O    0.05610   0.08718   0.90377   1.000
    O864    O    0.01113   0.13990   0.92500   1.000
    O865    O    0.58014   0.14818   0.87934   1.000
    O866    O    0.55609   0.08718   0.90377   1.000
    O867    O    0.51113   0.13990   0.92500   1.000
    O868    O    0.58015   0.64819   0.87934   1.000
    O869    O    0.55609   0.58718   0.90377   1.000
    O870    O    0.51113   0.63991   0.92500   1.000
    O871    O    0.47338   0.99481   0.94001   1.000
    O872    O    0.97338   0.49481   0.94001   1.000
    O873    O    0.97337   0.99481   0.94002   1.000
    O874    O    0.13286   0.69271   0.91853   1.000
    O875    O    0.13286   0.19269   0.91856   1.000
    O876    O    0.63285   0.69269   0.91860   1.000
    O877    O    0.63285   0.19268   0.91861   1.000
    O878    O    0.16136   0.04515   0.92236   1.000
    O879    O    0.16136   0.54517   0.92236   1.000
    O880    O    0.66135   0.04515   0.92236   1.000
    O881    O    0.66135   0.54516   0.92237   1.000
    O882    O    0.06577   0.85856   0.94297   1.000
    O883    O    0.56580   0.35855   0.94303   1.000
    O884    O    0.06581   0.35855   0.94302   1.000
    O885    O    0.56582   0.85856   0.94304   1.000
    O886    O    0.60657   0.54339   0.93991   1.000
    O887    O    0.60656   0.04338   0.93991   1.000
    O888    O    0.10658   0.54339   0.93991   1.000
    O889    O    0.10657   0.04338   0.93991   1.000
    O890    O    0.14142   0.01678   0.96519   1.000
    O891    O    0.14142   0.51679   0.96519   1.000
    O892    O    0.64141   0.01678   0.96516   1.000
    O893    O    0.64141   0.51678   0.96519   1.000
    O894    O    0.16828   0.21529   0.95209   1.000
    O895    O    0.12242   0.22586   0.97413   1.000
    O896    O    0.16828   0.71529   0.95208   1.000
    O897    O    0.12242   0.72587   0.97412   1.000
    O898    O    0.66827   0.71528   0.95214   1.000
    O899    O    0.62241   0.72586   0.97417   1.000
    O900    O    0.66827   0.21527   0.95216   1.000
    O901    O    0.62240   0.22585   0.97418   1.000
    O902    O    0.55332   0.89864   0.96521   1.000
    O903    O    0.52792   0.96273   0.98194   1.000
    O904    O    0.05330   0.89864   0.96521   1.000
    O905    O    0.02793   0.96273   0.98197   1.000
    O906    O    0.55331   0.39863   0.96523   1.000
    O907    O    0.05332   0.39863   0.96523   1.000
    O908    O    0.02793   0.46273   0.98197   1.000
    O909    O    0.05174   0.74508   0.99971   1.000
    O910    O    0.05173   0.24508   0.99973   1.000
    O911    O    0.55172   0.24507   0.99974   1.000
    O912    O    0.35692   0.39001   0.21858   1.000
    O913    O    0.35693   0.89001   0.21855   1.000
    O914    O    0.85691   0.39001   0.21858   1.000
    O915    O    0.85692   0.89002   0.21859   1.000
    O916    O    0.98722   0.34636   0.17180   1.000
    O917    O    0.98722   0.84636   0.17180   1.000
    O918    O    0.48722   0.34636   0.17180   1.000
    O919    O    0.48722   0.84637   0.17179   1.000
    O920    O    0.34216   0.35300   0.15143   1.000
    O921    O    0.34217   0.85301   0.15141   1.000
    O922    O    0.84215   0.35299   0.15144   1.000
    O923    O    0.84216   0.85299   0.15146   1.000
    O924    O    0.05128   0.39755   0.25006   1.000
    O925    O    0.05129   0.89756   0.25009   1.000
    O926    O    0.55127   0.39755   0.25008   1.000
    O927    O    0.55128   0.89756   0.25008   1.000
    O928    O    0.00684   0.29639   0.01015   1.000
    O929    O    0.00684   0.79640   0.01014   1.000
    O930    O    0.50683   0.29639   0.01015   1.000
    O931    O    0.50683   0.79640   0.01015   1.000
    O932    O    0.46187   0.47411   0.03135   1.000
    O933    O    0.46187   0.97412   0.03134   1.000
    O934    O    0.96187   0.47411   0.03137   1.000
    O935    O    0.96187   0.97411   0.03137   1.000
    O936    O    0.10694   0.36003   0.28146   1.000
    O937    O    0.10694   0.86004   0.28149   1.000
    O938    O    0.60693   0.36004   0.28149   1.000
    O939    O    0.60693   0.86004   0.28148   1.000
    O940    O    0.23708   0.40366   0.32822   1.000
    O941    O    0.23709   0.90367   0.32822   1.000
    O942    O    0.73708   0.40366   0.32822   1.000
    O943    O    0.73708   0.90367   0.32822   1.000
    O944    O    0.09210   0.39686   0.34897   1.000
    O945    O    0.09211   0.89687   0.34900   1.000
    O946    O    0.59209   0.39686   0.34897   1.000
    O947    O    0.59210   0.89687   0.34897   1.000
    O948    O    0.30129   0.35246   0.24995   1.000
    O949    O    0.30130   0.85247   0.24995   1.000
    O950    O    0.80128   0.35246   0.24995   1.000
    O951    O    0.80129   0.85247   0.24995   1.000
    O952    O    0.25686   0.45362   0.48979   1.000
    O953    O    0.25686   0.95362   0.48978   1.000
    O954    O    0.75685   0.45362   0.48980   1.000
    O955    O    0.75685   0.95362   0.48980   1.000
    O956    O    0.21187   0.27587   0.46859   1.000
    O957    O    0.21188   0.77588   0.46859   1.000
    O958    O    0.71186   0.27587   0.46859   1.000
    O959    O    0.71187   0.77588   0.46859   1.000
    O960    O    0.14307   0.11000   0.78137   1.000
    O961    O    0.14307   0.61001   0.78137   1.000
    O962    O    0.64306   0.11001   0.78138   1.000
    O963    O    0.64306   0.61001   0.78138   1.000
    O964    O    0.51276   0.15365   0.82816   1.000
    O965    O    0.51277   0.65366   0.82816   1.000
    O966    O    0.01276   0.15365   0.82816   1.000
    O967    O    0.01276   0.65366   0.82815   1.000
    O968    O    0.15783   0.14701   0.84853   1.000
    O969    O    0.15783   0.64703   0.84849   1.000
    O970    O    0.65782   0.14701   0.84855   1.000
    O971    O    0.65782   0.64702   0.84854   1.000
    O972    O    0.44871   0.10246   0.74987   1.000
    O973    O    0.44871   0.60247   0.74985   1.000
    O974    O    0.94870   0.10246   0.74987   1.000
    O975    O    0.94870   0.60247   0.74987   1.000
    O976    O    0.49315   0.20362   0.98983   1.000
    O977    O    0.49316   0.70363   0.98983   1.000
    O978    O    0.99315   0.20362   0.98983   1.000
    O979    O    0.99316   0.70363   0.98982   1.000
    O980    O    0.03812   0.02589   0.96860   1.000
    O981    O    0.03813   0.52591   0.96859   1.000
    O982    O    0.53811   0.02589   0.96859   1.000
    O983    O    0.53812   0.52590   0.96860   1.000
    O984    O    0.39306   0.13998   0.71847   1.000
    O985    O    0.39306   0.63998   0.71847   1.000
    O986    O    0.89304   0.13998   0.71847   1.000
    O987    O    0.89305   0.63998   0.71847   1.000
    O988    O    0.26290   0.09635   0.67173   1.000
    O989    O    0.26291   0.59636   0.67172   1.000
    O990    O    0.76289   0.09635   0.67173   1.000
    O991    O    0.76290   0.59636   0.67173   1.000
    O992    O    0.40789   0.10316   0.65090   1.000
    O993    O    0.40790   0.60316   0.65095   1.000
    O994    O    0.90788   0.10315   0.65096   1.000
    O995    O    0.90788   0.60316   0.65095   1.000
    O996    O    0.19870   0.14755   0.75000   1.000
    O997    O    0.19871   0.64756   0.75000   1.000
    O998    O    0.69869   0.14755   0.75001   1.000
    O999    O    0.69870   0.64756   0.75001   1.000
    O1000   O    0.24313   0.04639   0.51014   1.000
    O1001   O    0.24314   0.54640   0.51014   1.000
    O1002   O    0.74312   0.04639   0.51013   1.000
    O1003   O    0.74313   0.54640   0.51015   1.000
    O1004   O    0.28812   0.22414   0.53136   1.000
    O1005   O    0.28812   0.72415   0.53136   1.000
    O1006   O    0.78811   0.22414   0.53136   1.000
    O1007   O    0.78811   0.72415   0.53136   1.000
loop_
    _geom_bond_atom_site_label_1
    _geom_bond_atom_site_label_2
    _geom_bond_distance
    _geom_bond_site_symmetry_2
    _ccdc_geom_bond_type
    C35    O432      1.05195      .   S
    C261   O432      1.05195      .   S
    C35    O433      1.06053      .   S
    C255   O433      1.06053      .   S
    C35    O434      1.06083  1_554   S
    C349   O434      1.06083      .   S
    C35    O435      1.05190  1_554   S
    C359   O435      1.05190      .   S
    C43    O436      1.06077      .   S
    C373   O436      1.06077      .   S
    C43    O437      1.04633      .   S
    C271   O437      1.04633      .   S
    C43    O438      1.04663  1_554   S
    C364   O438      1.04663      .   S
    C43    O439      1.06085  1_554   S
    C278   O439      1.06085      .   S
    C261   O440      0.62659      .   S
    C153   O440      0.62659      .   S
    C260   O441      0.62661      .   S
    C152   O441      0.62661      .   S
    C260   O442      1.05196      .   S
    C34    O442      1.05196      .   S
    C262   O443      0.62657      .   S
    C154   O443      0.62657      .   S
    C262   O444      1.05222      .   S
    C32    O444      1.05222  1_455   S
    C263   O445      0.62659      .   S
    C155   O445      0.62659      .   S
    C263   O446      1.05225      .   S
    C33    O446      1.05225  1_456   S
    C71    O447      0.55108      .   S
    C166   O447      0.55108      .   S
    C69    O448      0.55113      .   S
    C164   O448      0.55113      .   S
    C70    O449      0.55098  1_545   S
    C167   O449      0.55098      .   S
    C68    O450      0.55079  1_545   S
    C165   O450      0.55079      .   S
    C273   O451      1.02955  1_455   S
    C3     O451      1.02955      .   S
    C273   O452      0.64705  1_554   S
    C161   O452      0.64705      .   S
    C272   O453      1.02951  1_455   S
    C2     O453      1.02951      .   S
    C272   O454      0.64712  1_554   S
    C160   O454      0.64712      .   S
    C274   O455      1.02943      .   S
    C0     O455      1.02943      .   S
    C274   O456      0.64705  1_554   S
    C162   O456      0.64705      .   S
    C275   O457      1.02933      .   S
    C1     O457      1.02933      .   S
    C275   O458      0.64706  1_554   S
    C163   O458      0.64706      .   S
    C209   O459      0.62392      .   S
    C373   O459      0.62392      .   S
    C209   O460      0.55155      .   S
    C113   O460      0.55155      .   S
    C209   O461      0.64684      .   S
    C369   O461      0.64684  1_556   S
    C211   O462      0.62390      .   S
    C375   O462      0.62390      .   S
    C211   O463      0.55131      .   S
    C115   O463      0.55131      .   S
    C211   O464      0.64708      .   S
    C371   O464      0.64708  1_556   S
    C210   O465      0.62390      .   S
    C374   O465      0.62390      .   S
    C210   O466      0.55133      .   S
    C114   O466      0.55133      .   S
    C210   O467      0.64707      .   S
    C370   O467      0.64707  1_556   S
    C208   O468      0.62390      .   S
    C372   O468      0.62390      .   S
    C208   O469      0.55133      .   S
    C112   O469      0.55133      .   S
    C208   O470      0.64705      .   S
    C368   O470      0.64705  1_556   S
    C375   O471      1.06089      .   S
    C41    O471      1.06089  1_456   S
    C374   O472      1.06090      .   S
    C40    O472      1.06090  1_455   S
    C372   O473      1.06079      .   S
    C42    O473      1.06079  1_566   S
    C57    O474      0.55291      .   S
    C153   O474      0.55291      .   S
    C56    O475      0.55292      .   S
    C152   O475      0.55292      .   S
    C58    O476      0.55291      .   S
    C154   O476      0.55291      .   S
    C59    O477      0.55292      .   S
    C155   O477      0.55292      .   S
    C153   O478      0.64461      .   S
    C257   O478      0.64461      .   S
    C152   O479      0.64459      .   S
    C256   O479      0.64459      .   S
    C154   O480      0.64465      .   S
    C258   O480      0.64465      .   S
    C155   O481      0.64463      .   S
    C259   O481      0.64463      .   S
    C165   O482      0.64467      .   S
    C281   O482      0.64467      .   S
    C165   O483      0.62741      .   S
    C285   O483      0.62741      .   S
    C166   O484      0.64470      .   S
    C282   O484      0.64470      .   S
    C166   O485      0.62730      .   S
    C286   O485      0.62730      .   S
    C167   O486      0.64468      .   S
    C283   O486      0.64468      .   S
    C167   O487      0.62726      .   S
    C287   O487      0.62726      .   S
    C164   O488      0.64465      .   S
    C280   O488      0.64465      .   S
    C164   O489      0.62727      .   S
    C284   O489      0.62727      .   S
    C280   O490      1.04867      .   S
    C0     O490      1.04867      .   S
    C281   O491      1.04865      .   S
    C1     O491      1.04865      .   S
    C283   O492      1.04846      .   S
    C3     O492      1.04846      .   S
    C282   O493      1.04848      .   S
    C2     O493      1.04848      .   S
    C285   O494      1.03392      .   S
    C13    O494      1.03392      .   S
    C287   O495      1.03391      .   S
    C15    O495      1.03391      .   S
    C286   O496      1.03387      .   S
    C14    O496      1.03387      .   S
    C284   O497      1.03388      .   S
    C12    O497      1.03388      .   S
    C257   O498      1.07983      .   S
    C1     O498      1.07983      .   S
    C256   O499      1.07987      .   S
    C0     O499      1.07987      .   S
    C258   O500      1.07987      .   S
    C2     O500      1.07987      .   S
    C259   O501      1.07991      .   S
    C3     O501      1.07991      .   S
    C270   O502      0.62562  1_545   S
    C159   O502      0.62562      .   S
    C270   O503      1.04634      .   S
    C42    O503      1.04634  1_566   S
    C271   O504      0.62567      .   S
    C158   O504      0.62567      .   S
    C269   O505      0.62571      .   S
    C156   O505      0.62571      .   S
    C269   O506      1.04635      .   S
    C41    O506      1.04635  1_556   S
    C268   O507      0.62564  1_545   S
    C157   O507      0.62564      .   S
    C268   O508      1.04631      .   S
    C40    O508      1.04631      .   S
    C72    O509      0.55166      .   S
    C168   O509      0.55166      .   S
    C75    O510      0.55145      .   S
    C171   O510      0.55145      .   S
    C73    O511      0.55144      .   S
    C169   O511      0.55144      .   S
    C74    O512      0.55166      .   S
    C170   O512      0.55166      .   S
    C1     O513      1.07439      .   S
    C267   O513      1.07439      .   S
    C1     O514      1.07770      .   S
    C241   O514      1.07770      .   S
    C0     O515      1.07433      .   S
    C266   O515      1.07433      .   S
    C0     O516      1.07789      .   S
    C240   O516      1.07789      .   S
    C2     O517      1.07448  1_655   S
    C264   O517      1.07448      .   S
    C2     O518      1.07789      .   S
    C242   O518      1.07789      .   S
    C3     O519      1.07449  1_655   S
    C265   O519      1.07449      .   S
    C3     O520      1.07794      .   S
    C243   O520      1.07794      .   S
    C295   O521      0.62909      .   S
    C171   O521      0.62909      .   S
    C295   O522      1.02844      .   S
    C15    O522      1.02844      .   S
    C294   O523      0.62927      .   S
    C170   O523      0.62927      .   S
    C294   O524      1.02842      .   S
    C14    O524      1.02842      .   S
    C293   O525      0.62908      .   S
    C169   O525      0.62908      .   S
    C293   O526      1.02841      .   S
    C13    O526      1.02841      .   S
    C292   O527      0.62909      .   S
    C168   O527      0.62909      .   S
    C292   O528      1.02842      .   S
    C12    O528      1.02842      .   S
    C252   O529      0.62548      .   S
    C148   O529      0.62548      .   S
    C252   O530      1.06039      .   S
    C32    O530      1.06039      .   S
    C254   O531      0.62560      .   S
    C150   O531      0.62560      .   S
    C254   O532      1.06040      .   S
    C34    O532      1.06040      .   S
    C253   O533      0.62537      .   S
    C149   O533      0.62537      .   S
    C253   O534      1.06054      .   S
    C33    O534      1.06054  1_556   S
    C255   O535      0.62536      .   S
    C151   O535      0.62536      .   S
    C171   O536      0.64203      .   S
    C291   O536      0.64203      .   S
    C169   O537      0.64203      .   S
    C289   O537      0.64203      .   S
    C168   O538      0.64204      .   S
    C288   O538      0.64204      .   S
    C170   O539      0.64161      .   S
    C290   O539      0.64161      .   S
    C159   O540      0.64257      .   S
    C267   O540      0.64257      .   S
    C159   O541      0.55369      .   S
    C63    O541      0.55369      .   S
    C158   O542      0.64256      .   S
    C266   O542      0.64256      .   S
    C158   O543      0.55375      .   S
    C62    O543      0.55375      .   S
    C156   O544      0.64255      .   S
    C264   O544      0.64255      .   S
    C156   O545      0.55361      .   S
    C60    O545      0.55361      .   S
    C157   O546      0.64256      .   S
    C265   O546      0.64256      .   S
    C157   O547      0.55368      .   S
    C61    O547      0.55368      .   S
    C12    O548      1.05987      .   S
    C296   O548      1.05987      .   S
    C13    O549      1.05988      .   S
    C297   O549      1.05988      .   S
    C14    O550      1.05989      .   S
    C298   O550      1.05989      .   S
    C15    O551      1.05986      .   S
    C299   O551      1.05986      .   S
    C148   O552      0.64354      .   S
    C248   O552      0.64354      .   S
    C148   O553      0.55286      .   S
    C52    O553      0.55286      .   S
    C151   O554      0.64355      .   S
    C251   O554      0.64355      .   S
    C151   O555      0.55282      .   S
    C55    O555      0.55282      .   S
    C149   O556      0.64354      .   S
    C249   O556      0.64354      .   S
    C149   O557      0.55287      .   S
    C53    O557      0.55287      .   S
    C150   O558      0.64354      .   S
    C250   O558      0.64354      .   S
    C150   O559      0.55283      .   S
    C54    O559      0.55283      .   S
    C248   O560      1.05957      .   S
    C4     O560      1.05957      .   S
    C249   O561      1.05981      .   S
    C5     O561      1.05981      .   S
    C251   O562      1.05977      .   S
    C7     O562      1.05977      .   S
    C250   O563      1.05975      .   S
    C6     O563      1.05975      .   S
    C77    O564      0.55285      .   S
    C172   O564      0.55285      .   S
    C78    O565      0.55270      .   S
    C175   O565      0.55270  1_565   S
    C76    O566      0.55272      .   S
    C173   O566      0.55272  1_565   S
    C79    O567      0.55286      .   S
    C174   O567      0.55286      .   S
    C241   O568      0.64191      .   S
    C145   O568      0.64191      .   S
    C240   O569      0.64163      .   S
    C144   O569      0.64163      .   S
    C242   O570      0.64161      .   S
    C146   O570      0.64161      .   S
    C243   O571      0.64160      .   S
    C147   O571      0.64160      .   S
    C290   O572      1.07819      .   S
    C10    O572      1.07819      .   S
    C289   O573      1.07819      .   S
    C9     O573      1.07819      .   S
    C291   O574      1.07819      .   S
    C11    O574      1.07819      .   S
    C288   O575      1.07819      .   S
    C8     O575      1.07819      .   S
    C85    O576      0.55349      .   S
    C181   O576      0.55349      .   S
    C86    O577      0.55369      .   S
    C182   O577      0.55369      .   S
    C84    O578      0.55369      .   S
    C180   O578      0.55369      .   S
    C87    O579      0.55368      .   S
    C183   O579      0.55368      .   S
    C296   O580      0.64354      .   S
    C172   O580      0.64354      .   S
    C299   O581      0.64352      .   S
    C175   O581      0.64352      .   S
    C298   O582      0.64354      .   S
    C174   O582      0.64354      .   S
    C297   O583      0.64353      .   S
    C173   O583      0.64353      .   S
    C172   O584      0.62516      .   S
    C301   O584      0.62516      .   S
    C175   O585      0.62534  1_565   S
    C302   O585      0.62534      .   S
    C173   O586      0.62526  1_565   S
    C300   O586      0.62526      .   S
    C174   O587      0.62534      .   S
    C303   O587      0.62534      .   S
    C312   O588      0.64261      .   S
    C180   O588      0.64261      .   S
    C312   O589      1.07399      .   S
    C8     O589      1.07399      .   S
    C313   O590      0.64257      .   S
    C181   O590      0.64257      .   S
    C313   O591      1.07400      .   S
    C9     O591      1.07400      .   S
    C314   O592      0.64261      .   S
    C182   O592      0.64261      .   S
    C314   O593      1.07398      .   S
    C10    O593      1.07398      .   S
    C315   O594      0.64262      .   S
    C183   O594      0.64262      .   S
    C315   O595      1.07398      .   S
    C11    O595      1.07398      .   S
    C4     O596      1.02842      .   S
    C246   O596      1.02842  1_655   S
    C4     O597      1.03398      .   S
    C332   O597      1.03398      .   S
    C7     O598      1.02812      .   S
    C245   O598      1.02812      .   S
    C7     O599      1.03377      .   S
    C335   O599      1.03377      .   S
    C6     O600      1.02809      .   S
    C244   O600      1.02809      .   S
    C6     O601      1.03373      .   S
    C334   O601      1.03373      .   S
    C5     O602      1.02829      .   S
    C247   O602      1.02829  1_655   S
    C5     O603      1.03358      .   S
    C333   O603      1.03358      .   S
    C181   O604      0.62594      .   S
    C317   O604      0.62594      .   S
    C180   O605      0.62567      .   S
    C316   O605      0.62567      .   S
    C182   O606      0.62568      .   S
    C318   O606      0.62568      .   S
    C183   O607      0.62570      .   S
    C319   O607      0.62570      .   S
    C145   O608      0.62928      .   S
    C245   O608      0.62928      .   S
    C145   O609      0.55170      .   S
    C49    O609      0.55170      .   S
    C146   O610      0.62929      .   S
    C246   O610      0.62929      .   S
    C146   O611      0.55169      .   S
    C50    O611      0.55169      .   S
    C144   O612      0.62926      .   S
    C244   O612      0.62926      .   S
    C144   O613      0.55168      .   S
    C48    O613      0.55168      .   S
    C147   O614      0.62929      .   S
    C247   O614      0.62929      .   S
    C147   O615      0.55165      .   S
    C51    O615      0.55165      .   S
    C301   O616      1.06020      .   S
    C37    O616      1.06020      .   S
    C300   O617      1.05990      .   S
    C36    O617      1.05990      .   S
    C302   O618      1.05984      .   S
    C38    O618      1.05984      .   S
    C303   O619      1.05990      .   S
    C39    O619      1.05990      .   S
    C8     O620      1.07871      .   S
    C304   O620      1.07871      .   S
    C8     O621      1.04872      .   S
    C328   O621      1.04872      .   S
    C8     O622      1.02935      .   S
    C320   O622      1.02935      .   S
    C11    O623      1.07871      .   S
    C307   O623      1.07871      .   S
    C11    O624      1.04873      .   S
    C331   O624      1.04873      .   S
    C11    O625      1.02940      .   S
    C323   O625      1.02940      .   S
    C10    O626      1.07865      .   S
    C306   O626      1.07865      .   S
    C10    O627      1.04875      .   S
    C330   O627      1.04875      .   S
    C10    O628      1.02939      .   S
    C322   O628      1.02939      .   S
    C9     O629      1.07870      .   S
    C305   O629      1.07870      .   S
    C9     O630      1.04876      .   S
    C329   O630      1.04876      .   S
    C9     O631      1.02924      .   S
    C321   O631      1.02924      .   S
    C316   O632      1.04646      .   S
    C44    O632      1.04646      .   S
    C317   O633      1.04644      .   S
    C45    O633      1.04644      .   S
    C318   O634      1.04645      .   S
    C46    O634      1.04645      .   S
    C319   O635      1.04642      .   S
    C47    O635      1.04642      .   S
    C307   O636      0.64465      .   S
    C179   O636      0.64465      .   S
    C306   O637      0.64480      .   S
    C178   O637      0.64480      .   S
    C304   O638      0.64453      .   S
    C176   O638      0.64453      .   S
    C305   O639      0.64454      .   S
    C177   O639      0.64454      .   S
    C333   O640      0.62736      .   S
    C189   O640      0.62736      .   S
    C334   O641      0.62730      .   S
    C190   O641      0.62730      .   S
    C335   O642      0.62728      .   S
    C191   O642      0.62728      .   S
    C332   O643      0.62727      .   S
    C188   O643      0.62727      .   S
    C139   O644      0.55135      .   S
    C235   O644      0.55135      .   S
    C136   O645      0.55132      .   S
    C232   O645      0.55132      .   S
    C137   O646      0.55133      .   S
    C233   O646      0.55133      .   S
    C138   O647      0.55135      .   S
    C234   O647      0.55135      .   S
    C328   O648      0.64470      .   S
    C188   O648      0.64470      .   S
    C329   O649      0.64469      .   S
    C189   O649      0.64469      .   S
    C330   O650      0.64470      .   S
    C190   O650      0.64470      .   S
    C331   O651      0.64470      .   S
    C191   O651      0.64470      .   S
    C189   O652      0.55112      .   S
    C93    O652      0.55112      .   S
    C188   O653      0.55108      .   S
    C92    O653      0.55108      .   S
    C190   O654      0.55106      .   S
    C94    O654      0.55106      .   S
    C191   O655      0.55106      .   S
    C95    O655      0.55106      .   S
    C179   O656      0.55293      .   S
    C83    O656      0.55293      .   S
    C179   O657      0.62659      .   S
    C311   O657      0.62659      .   S
    C178   O658      0.55293      .   S
    C82    O658      0.55293      .   S
    C178   O659      0.62659      .   S
    C310   O659      0.62659      .   S
    C177   O660      0.55293      .   S
    C81    O660      0.55293      .   S
    C177   O661      0.62659      .   S
    C309   O661      0.62659      .   S
    C176   O662      0.55293      .   S
    C80    O662      0.55293      .   S
    C176   O663      0.62656      .   S
    C308   O663      0.62656      .   S
    C423   O664      0.62388      .   S
    C235   O664      0.62388      .   S
    C423   O665      1.06108      .   S
    C47    O665      1.06108      .   S
    C420   O666      0.62387      .   S
    C232   O666      0.62387      .   S
    C420   O667      1.06108      .   S
    C44    O667      1.06108      .   S
    C421   O668      0.62387      .   S
    C233   O668      0.62387      .   S
    C421   O669      1.06109      .   S
    C45    O669      1.06109      .   S
    C422   O670      0.62387      .   S
    C234   O670      0.62387      .   S
    C422   O671      1.06107      .   S
    C46    O671      1.06107      .   S
    C235   O672      0.64689      .   S
    C419   O672      0.64689      .   S
    C232   O673      0.64691      .   S
    C416   O673      0.64691      .   S
    C233   O674      0.64691      .   S
    C417   O674      0.64691      .   S
    C234   O675      0.64679      .   S
    C418   O675      0.64679      .   S
    C321   O676      0.64701      .   S
    C185   O676      0.64701      .   S
    C320   O677      0.64693      .   S
    C184   O677      0.64693      .   S
    C322   O678      0.64693      .   S
    C186   O678      0.64693      .   S
    C323   O679      0.64693      .   S
    C187   O679      0.64693      .   S
    C308   O680      1.05203      .   S
    C37    O680      1.05203      .   S
    C311   O681      1.05192      .   S
    C38    O681      1.05192  1_545   S
    C309   O682      1.05188      .   S
    C36    O682      1.05188  1_545   S
    C310   O683      1.05199      .   S
    C39    O683      1.05199      .   S
    C36    O684      1.05198      .   S
    C404   O684      1.05198      .   S
    C36    O685      1.05978  1_545   S
    C397   O685      1.05978      .   S
    C37    O686      1.05199      .   S
    C405   O686      1.05199      .   S
    C37    O687      1.05976      .   S
    C396   O687      1.05976      .   S
    C38    O688      1.05200      .   S
    C406   O688      1.05200      .   S
    C38    O689      1.05978  1_545   S
    C399   O689      1.05978      .   S
    C46    O690      1.06106      .   S
    C326   O690      1.06106      .   S
    C46    O691      1.04642      .   S
    C414   O691      1.04642      .   S
    C45    O692      1.06106      .   S
    C325   O692      1.06106      .   S
    C45    O693      1.04643      .   S
    C413   O693      1.04643      .   S
    C47    O694      1.06103      .   S
    C327   O694      1.06103      .   S
    C47    O695      1.04647      .   S
    C415   O695      1.04647      .   S
    C44    O696      1.06108      .   S
    C324   O696      1.06108      .   S
    C44    O697      1.04642      .   S
    C412   O697      1.04642      .   S
    C39    O698      1.05199      .   S
    C407   O698      1.05199      .   S
    C39    O699      1.05983      .   S
    C398   O699      1.05983      .   S
    C404   O700      0.62657      .   S
    C224   O700      0.62657      .   S
    C405   O701      0.62657      .   S
    C225   O701      0.62657      .   S
    C407   O702      0.62657      .   S
    C227   O702      0.62657      .   S
    C406   O703      0.62657      .   S
    C226   O703      0.62657      .   S
    C142   O704      0.55113      .   S
    C238   O704      0.55113      .   S
    C140   O705      0.55091      .   S
    C236   O705      0.55091      .   S
    C141   O706      0.55110      .   S
    C237   O706      0.55110      .   S
    C143   O707      0.55107      .   S
    C239   O707      0.55107      .   S
    C418   O708      1.02958      .   S
    C26    O708      1.02958      .   S
    C419   O709      1.02946      .   S
    C27    O709      1.02946      .   S
    C417   O710      1.02941      .   S
    C25    O710      1.02941      .   S
    C416   O711      1.02946      .   S
    C24    O711      1.02946      .   S
    C185   O712      0.62387      .   S
    C325   O712      0.62387      .   S
    C185   O713      0.55135      .   S
    C89    O713      0.55135      .   S
    C184   O714      0.62387      .   S
    C324   O714      0.62387      .   S
    C184   O715      0.55134      .   S
    C88    O715      0.55134      .   S
    C186   O716      0.62389      .   S
    C326   O716      0.62389      .   S
    C186   O717      0.55134      .   S
    C90    O717      0.55134      .   S
    C187   O718      0.62388      .   S
    C327   O718      0.62388      .   S
    C187   O719      0.55134      .   S
    C91    O719      0.55134      .   S
    C128   O720      0.55294      .   S
    C224   O720      0.55294      .   S
    C129   O721      0.55294      .   S
    C225   O721      0.55294      .   S
    C130   O722      0.55294      .   S
    C226   O722      0.55294      .   S
    C131   O723      0.55293      .   S
    C227   O723      0.55293      .   S
    C224   O724      0.64418      .   S
    C400   O724      0.64418      .   S
    C225   O725      0.64455      .   S
    C401   O725      0.64455      .   S
    C226   O726      0.64455      .   S
    C402   O726      0.64455      .   S
    C227   O727      0.64450      .   S
    C403   O727      0.64450      .   S
    C236   O728      0.64472      .   S
    C424   O728      0.64472      .   S
    C236   O729      0.62741      .   S
    C428   O729      0.62741      .   S
    C239   O730      0.64470      .   S
    C427   O730      0.64470      .   S
    C239   O731      0.62730      .   S
    C431   O731      0.62730      .   S
    C238   O732      0.64470      .   S
    C426   O732      0.64470      .   S
    C238   O733      0.62727      .   S
    C430   O733      0.62727      .   S
    C237   O734      0.64470      .   S
    C425   O734      0.64470      .   S
    C237   O735      0.62728      .   S
    C429   O735      0.62728      .   S
    C425   O736      1.04874      .   S
    C25    O736      1.04874      .   S
    C424   O737      1.04878      .   S
    C24    O737      1.04878      .   S
    C426   O738      1.04874      .   S
    C26    O738      1.04874      .   S
    C427   O739      1.04876      .   S
    C27    O739      1.04876      .   S
    C428   O740      1.03375      .   S
    C20    O740      1.03375      .   S
    C429   O741      1.03374      .   S
    C21    O741      1.03374      .   S
    C430   O742      1.03373      .   S
    C22    O742      1.03373      .   S
    C431   O743      1.03374      .   S
    C23    O743      1.03374      .   S
    C400   O744      1.07873      .   S
    C24    O744      1.07873      .   S
    C401   O745      1.07868      .   S
    C25    O745      1.07868      .   S
    C403   O746      1.07870      .   S
    C27    O746      1.07870      .   S
    C402   O747      1.07870      .   S
    C26    O747      1.07870      .   S
    C413   O748      0.62519      .   S
    C229   O748      0.62519      .   S
    C414   O749      0.62566      .   S
    C230   O749      0.62566      .   S
    C412   O750      0.62569      .   S
    C228   O750      0.62569      .   S
    C415   O751      0.62563      .   S
    C231   O751      0.62563      .   S
    C98    O752      0.55182      .   S
    C194   O752      0.55182      .   S
    C97    O753      0.55168      .   S
    C193   O753      0.55168      .   S
    C99    O754      0.55168      .   S
    C195   O754      0.55168      .   S
    C96    O755      0.55143      .   S
    C192   O755      0.55143      .   S
    C25    O756      1.07400      .   S
    C409   O756      1.07400      .   S
    C25    O757      1.07825      .   S
    C385   O757      1.07825      .   S
    C24    O758      1.07396      .   S
    C408   O758      1.07396      .   S
    C24    O759      1.07819      .   S
    C384   O759      1.07819      .   S
    C26    O760      1.07399      .   S
    C410   O760      1.07399      .   S
    C26    O761      1.07818      .   S
    C386   O761      1.07818      .   S
    C27    O762      1.07398      .   S
    C411   O762      1.07398      .   S
    C27    O763      1.07818      .   S
    C387   O763      1.07818      .   S
    C341   O764      0.62929      .   S
    C193   O764      0.62929      .   S
    C341   O765      1.02828  1_455   S
    C23    O765      1.02828      .   S
    C343   O766      0.62929      .   S
    C195   O766      0.62929      .   S
    C343   O767      1.02811      .   S
    C21    O767      1.02811      .   S
    C340   O768      0.62911      .   S
    C192   O768      0.62911      .   S
    C340   O769      1.02826  1_455   S
    C22    O769      1.02826      .   S
    C342   O770      0.62929      .   S
    C194   O770      0.62929      .   S
    C342   O771      1.02811      .   S
    C20    O771      1.02811      .   S
    C396   O772      0.62537      .   S
    C221   O772      0.62537      .   S
    C399   O773      0.62529      .   S
    C222   O773      0.62529  1_545   S
    C397   O774      0.62525      .   S
    C220   O774      0.62525  1_545   S
    C398   O775      0.62542      .   S
    C223   O775      0.62542      .   S
    C192   O776      0.64202      .   S
    C336   O776      0.64202      .   S
    C193   O777      0.64160      .   S
    C337   O777      0.64160      .   S
    C195   O778      0.64160      .   S
    C339   O778      0.64160      .   S
    C194   O779      0.64161      .   S
    C338   O779      0.64161      .   S
    C229   O780      0.64271      .   S
    C409   O780      0.64271      .   S
    C229   O781      0.55414      .   S
    C133   O781      0.55414      .   S
    C231   O782      0.64262      .   S
    C411   O782      0.64262      .   S
    C231   O783      0.55370      .   S
    C135   O783      0.55370      .   S
    C230   O784      0.64262      .   S
    C410   O784      0.64262      .   S
    C230   O785      0.55374      .   S
    C134   O785      0.55374      .   S
    C228   O786      0.64261      .   S
    C408   O786      0.64261      .   S
    C228   O787      0.55372      .   S
    C132   O787      0.55372      .   S
    C23    O788      1.05973      .   S
    C347   O788      1.05973      .   S
    C22    O789      1.05982      .   S
    C346   O789      1.05982      .   S
    C21    O790      1.05982      .   S
    C345   O790      1.05982      .   S
    C20    O791      1.05980      .   S
    C344   O791      1.05980      .   S
    C221   O792      0.64353      .   S
    C393   O792      0.64353      .   S
    C221   O793      0.55288      .   S
    C124   O793      0.55288      .   S
    C220   O794      0.64353      .   S
    C392   O794      0.64353      .   S
    C220   O795      0.55272  1_545   S
    C125   O795      0.55272      .   S
    C222   O796      0.64354      .   S
    C394   O796      0.64354      .   S
    C222   O797      0.55273  1_545   S
    C127   O797      0.55273      .   S
    C223   O798      0.64353      .   S
    C395   O798      0.64353      .   S
    C223   O799      0.55280      .   S
    C126   O799      0.55280      .   S
    C395   O800      1.05992      .   S
    C31    O800      1.05992      .   S
    C394   O801      1.05993      .   S
    C30    O801      1.05993      .   S
    C392   O802      1.05989      .   S
    C28    O802      1.05989      .   S
    C393   O803      1.05990      .   S
    C29    O803      1.05990      .   S
    C103   O804      0.55726      .   S
    C199   O804      0.55726      .   S
    C101   O805      0.55281      .   S
    C197   O805      0.55281      .   S
    C102   O806      0.55284      .   S
    C198   O806      0.55284      .   S
    C100   O807      0.55238      .   S
    C196   O807      0.55238      .   S
    C384   O808      0.64161      .   S
    C216   O808      0.64161      .   S
    C385   O809      0.64161      .   S
    C217   O809      0.64161      .   S
    C386   O810      0.64160      .   S
    C218   O810      0.64160      .   S
    C387   O811      0.64161      .   S
    C219   O811      0.64161      .   S
    C337   O812      1.07787      .   S
    C17    O812      1.07787      .   S
    C339   O813      1.07788      .   S
    C19    O813      1.07788      .   S
    C338   O814      1.07788      .   S
    C18    O814      1.07788      .   S
    C336   O815      1.07787      .   S
    C16    O815      1.07787      .   S
    C108   O816      0.55372      .   S
    C204   O816      0.55372      .   S
    C111   O817      0.55372      .   S
    C207   O817      0.55372      .   S
    C109   O818      0.55373      .   S
    C205   O818      0.55373      .   S
    C110   O819      0.55371      .   S
    C206   O819      0.55371      .   S
    C347   O820      0.64354      .   S
    C199   O820      0.64354      .   S
    C344   O821      0.64352      .   S
    C196   O821      0.64352      .   S
    C345   O822      0.64355      .   S
    C197   O822      0.64355      .   S
    C346   O823      0.64354      .   S
    C198   O823      0.64354      .   S
    C196   O824      0.62585      .   S
    C348   O824      0.62585      .   S
    C199   O825      0.62537      .   S
    C351   O825      0.62537      .   S
    C197   O826      0.62536      .   S
    C349   O826      0.62536      .   S
    C198   O827      0.62534      .   S
    C350   O827      0.62534      .   S
    C361   O828      0.64260      .   S
    C205   O828      0.64260      .   S
    C361   O829      1.07444      .   S
    C19    O829      1.07444      .   S
    C360   O830      0.64255      .   S
    C204   O830      0.64255      .   S
    C360   O831      1.07433      .   S
    C18    O831      1.07433      .   S
    C363   O832      0.64256      .   S
    C207   O832      0.64256      .   S
    C363   O833      1.07449      .   S
    C17    O833      1.07449  1_455   S
    C362   O834      0.64255      .   S
    C206   O834      0.64255      .   S
    C362   O835      1.07448      .   S
    C16    O835      1.07448  1_455   S
    C29    O836      1.02841      .   S
    C389   O836      1.02841      .   S
    C29    O837      1.03380      .   S
    C381   O837      1.03380      .   S
    C28    O838      1.02841      .   S
    C388   O838      1.02841      .   S
    C28    O839      1.03384      .   S
    C380   O839      1.03384      .   S
    C31    O840      1.02841      .   S
    C391   O840      1.02841      .   S
    C31    O841      1.03390      .   S
    C383   O841      1.03390      .   S
    C30    O842      1.02841      .   S
    C390   O842      1.02841      .   S
    C30    O843      1.03380      .   S
    C382   O843      1.03380      .   S
    C204   O844      0.62562      .   S
    C365   O844      0.62562  1_565   S
    C207   O845      0.62571      .   S
    C366   O845      0.62571      .   S
    C205   O846      0.62567      .   S
    C364   O846      0.62567      .   S
    C206   O847      0.62560      .   S
    C367   O847      0.62560  1_565   S
    C216   O848      0.62924      .   S
    C388   O848      0.62924      .   S
    C216   O849      0.55165      .   S
    C120   O849      0.55165      .   S
    C217   O850      0.62925      .   S
    C389   O850      0.62925      .   S
    C217   O851      0.55165      .   S
    C121   O851      0.55165      .   S
    C218   O852      0.62927      .   S
    C390   O852      0.62927      .   S
    C218   O853      0.55166      .   S
    C122   O853      0.55166      .   S
    C219   O854      0.62926      .   S
    C391   O854      0.62926      .   S
    C219   O855      0.55167      .   S
    C123   O855      0.55167      .   S
    C351   O856      1.06076      .   S
    C33    O856      1.06076  1_455   S
    C350   O857      1.06076      .   S
    C32    O857      1.06076  1_454   S
    C348   O858      1.06068      .   S
    C34    O858      1.06068  1_554   S
    C17    O859      1.07988      .   S
    C353   O859      1.07988      .   S
    C17    O860      1.04846      .   S
    C377   O860      1.04846      .   S
    C17    O861      1.02951      .   S
    C371   O861      1.02951  1_655   S
    C16    O862      1.07983      .   S
    C352   O862      1.07983      .   S
    C16    O863      1.04848      .   S
    C376   O863      1.04848      .   S
    C16    O864      1.02953      .   S
    C370   O864      1.02953  1_655   S
    C18    O865      1.07984      .   S
    C354   O865      1.07984      .   S
    C18    O866      1.04849      .   S
    C378   O866      1.04849      .   S
    C18    O867      1.02947      .   S
    C368   O867      1.02947      .   S
    C19    O868      1.07984      .   S
    C355   O868      1.07984      .   S
    C19    O869      1.04849      .   S
    C379   O869      1.04849      .   S
    C19    O870      1.02942      .   S
    C369   O870      1.02942      .   S
    C365   O871      1.04650      .   S
    C42    O871      1.04650      .   S
    C366   O872      1.04665      .   S
    C41    O872      1.04665  1_455   S
    C367   O873      1.04662      .   S
    C40    O873      1.04662  1_444   S
    C353   O874      0.64463      .   S
    C201   O874      0.64463      .   S
    C352   O875      0.64443      .   S
    C200   O875      0.64443      .   S
    C355   O876      0.64462      .   S
    C203   O876      0.64462      .   S
    C354   O877      0.64458      .   S
    C202   O877      0.64458      .   S
    C380   O878      0.62734      .   S
    C212   O878      0.62734      .   S
    C381   O879      0.62734      .   S
    C213   O879      0.62734      .   S
    C382   O880      0.62734      .   S
    C214   O880      0.62734      .   S
    C383   O881      0.62727      .   S
    C215   O881      0.62727      .   S
    C65    O882      0.55134      .   S
    C161   O882      0.55134      .   S
    C66    O883      0.55132      .   S
    C162   O883      0.55132      .   S
    C64    O884      0.55124      .   S
    C160   O884      0.55124      .   S
    C67    O885      0.55136      .   S
    C163   O885      0.55136      .   S
    C379   O886      0.64469      .   S
    C215   O886      0.64469      .   S
    C378   O887      0.64469      .   S
    C214   O887      0.64469      .   S
    C377   O888      0.64469      .   S
    C213   O888      0.64469      .   S
    C376   O889      0.64469      .   S
    C212   O889      0.64469      .   S
    C212   O890      0.55097      .   S
    C117   O890      0.55097  1_565   S
    C213   O891      0.55114      .   S
    C116   O891      0.55114      .   S
    C214   O892      0.55071      .   S
    C119   O892      0.55071  1_565   S
    C215   O893      0.55111      .   S
    C118   O893      0.55111      .   S
    C200   O894      0.55293      .   S
    C104   O894      0.55293      .   S
    C200   O895      0.62676      .   S
    C356   O895      0.62676      .   S
    C201   O896      0.55291      .   S
    C105   O896      0.55291      .   S
    C201   O897      0.62661      .   S
    C357   O897      0.62661      .   S
    C203   O898      0.55292      .   S
    C107   O898      0.55292      .   S
    C203   O899      0.62656      .   S
    C359   O899      0.62656      .   S
    C202   O900      0.55292      .   S
    C106   O900      0.55292      .   S
    C202   O901      0.62660      .   S
    C358   O901      0.62660      .   S
    C279   O902      0.62392      .   S
    C163   O902      0.62392      .   S
    C279   O903      1.06081      .   S
    C42    O903      1.06081      .   S
    C277   O904      0.62389      .   S
    C161   O904      0.62389      .   S
    C277   O905      1.06070      .   S
    C40    O905      1.06070  1_544   S
    C278   O906      0.62390      .   S
    C162   O906      0.62390      .   S
    C276   O907      0.62390      .   S
    C160   O907      0.62390      .   S
    C276   O908      1.06080      .   S
    C41    O908      1.06080      .   S
    C357   O909      1.05198      .   S
    C33    O909      1.05198      .   S
    C356   O910      1.05194      .   S
    C32    O910      1.05194  1_554   S
    C358   O911      1.05190      .   S
    C34    O911      1.05190  1_554   S
    C240   O912      1.08138      .   S
    C12    O912      1.08138      .   S
    C241   O913      1.08122      .   S
    C13    O913      1.08122      .   S
    C242   O914      1.08138      .   S
    C14    O914      1.08138      .   S
    C243   O915      1.08140      .   S
    C15    O915      1.08140      .   S
    C248   O916      1.07152  1_455   S
    C2     O916      1.07152      .   S
    C249   O917      1.07153  1_455   S
    C3     O917      1.07153      .   S
    C250   O918      1.07145      .   S
    C0     O918      1.07145      .   S
    C251   O919      1.07150      .   S
    C1     O919      1.07150      .   S
    C256   O920      1.08514      .   S
    C12    O920      1.08514      .   S
    C257   O921      1.08519      .   S
    C13    O921      1.08519      .   S
    C258   O922      1.08509      .   S
    C14    O922      1.08509      .   S
    C259   O923      1.08510      .   S
    C15    O923      1.08510      .   S
    C264   O924      1.09871      .   S
    C4     O924      1.09871      .   S
    C265   O925      1.09895      .   S
    C5     O925      1.09895      .   S
    C266   O926      1.09899      .   S
    C6     O926      1.09899      .   S
    C267   O927      1.09894      .   S
    C7     O927      1.09894      .   S
    C272   O928      1.09036      .   S
    C32    O928      1.09036      .   S
    C273   O929      1.09034      .   S
    C33    O929      1.09034  1_556   S
    C274   O930      1.09035      .   S
    C34    O930      1.09035      .   S
    C275   O931      1.09035      .   S
    C35    O931      1.09035      .   S
    C280   O932      1.08714      .   S
    C43    O932      1.08714      .   S
    C281   O933      1.08695      .   S
    C42    O933      1.08695  1_556   S
    C282   O934      1.08749      .   S
    C41    O934      1.08749  1_456   S
    C283   O935      1.08731      .   S
    C40    O935      1.08731  1_445   S
    C288   O936      1.08045      .   S
    C4     O936      1.08045      .   S
    C289   O937      1.08058      .   S
    C5     O937      1.08058      .   S
    C290   O938      1.08058      .   S
    C6     O938      1.08058      .   S
    C291   O939      1.08056      .   S
    C7     O939      1.08056      .   S
    C296   O940      1.07159      .   S
    C8     O940      1.07159      .   S
    C297   O941      1.07159      .   S
    C9     O941      1.07159      .   S
    C298   O942      1.07158      .   S
    C10    O942      1.07158      .   S
    C299   O943      1.07158      .   S
    C11    O943      1.07158      .   S
    C304   O944      1.08641      .   S
    C4     O944      1.08641      .   S
    C305   O945      1.08623      .   S
    C5     O945      1.08623      .   S
    C306   O946      1.08602      .   S
    C6     O946      1.08602      .   S
    C307   O947      1.08615      .   S
    C7     O947      1.08615      .   S
    C312   O948      1.09859      .   S
    C12    O948      1.09859      .   S
    C313   O949      1.09859      .   S
    C13    O949      1.09859      .   S
    C314   O950      1.09860      .   S
    C14    O950      1.09860      .   S
    C315   O951      1.09854      .   S
    C15    O951      1.09854      .   S
    C320   O952      1.09036      .   S
    C37    O952      1.09036      .   S
    C321   O953      1.09019      .   S
    C36    O953      1.09019  1_545   S
    C322   O954      1.09036      .   S
    C39    O954      1.09036      .   S
    C323   O955      1.09015      .   S
    C38    O955      1.09015  1_545   S
    C328   O956      1.08654      .   S
    C44    O956      1.08654      .   S
    C329   O957      1.08653      .   S
    C45    O957      1.08653      .   S
    C330   O958      1.08652      .   S
    C46    O958      1.08652      .   S
    C331   O959      1.08654      .   S
    C47    O959      1.08654      .   S
    C336   O960      1.08135      .   S
    C28    O960      1.08135      .   S
    C337   O961      1.08141      .   S
    C29    O961      1.08141      .   S
    C338   O962      1.08136      .   S
    C30    O962      1.08136      .   S
    C339   O963      1.08136      .   S
    C31    O963      1.08136      .   S
    C344   O964      1.07143      .   S
    C18    O964      1.07143      .   S
    C345   O965      1.07142      .   S
    C19    O965      1.07142      .   S
    C346   O966      1.07153  1_655   S
    C16    O966      1.07153      .   S
    C347   O967      1.07154  1_655   S
    C17    O967      1.07154      .   S
    C352   O968      1.08516      .   S
    C28    O968      1.08516      .   S
    C353   O969      1.08507      .   S
    C29    O969      1.08507      .   S
    C354   O970      1.08520      .   S
    C30    O970      1.08520      .   S
    C355   O971      1.08517      .   S
    C31    O971      1.08517      .   S
    C360   O972      1.09895      .   S
    C20    O972      1.09895      .   S
    C361   O973      1.09876      .   S
    C21    O973      1.09876      .   S
    C362   O974      1.09900      .   S
    C22    O974      1.09900      .   S
    C363   O975      1.09894      .   S
    C23    O975      1.09894      .   S
    C368   O976      1.09036      .   S
    C34    O976      1.09036  1_554   S
    C369   O977      1.09038      .   S
    C35    O977      1.09038  1_554   S
    C370   O978      1.09039      .   S
    C32    O978      1.09039  1_454   S
    C371   O979      1.09040      .   S
    C33    O979      1.09040  1_455   S
    C376   O980      1.08744      .   S
    C40    O980      1.08744  1_554   S
    C377   O981      1.08745      .   S
    C41    O981      1.08745      .   S
    C378   O982      1.08742      .   S
    C42    O982      1.08742  1_565   S
    C379   O983      1.08744      .   S
    C43    O983      1.08744  1_554   S
    C384   O984      1.08057      .   S
    C20    O984      1.08057      .   S
    C385   O985      1.08057      .   S
    C21    O985      1.08057      .   S
    C386   O986      1.08060      .   S
    C22    O986      1.08060      .   S
    C387   O987      1.08059      .   S
    C23    O987      1.08059      .   S
    C392   O988      1.07157      .   S
    C24    O988      1.07157      .   S
    C393   O989      1.07162      .   S
    C25    O989      1.07162      .   S
    C394   O990      1.07155      .   S
    C26    O990      1.07155      .   S
    C395   O991      1.07154      .   S
    C27    O991      1.07154      .   S
    C400   O992      1.08655      .   S
    C20    O992      1.08655      .   S
    C401   O993      1.08625      .   S
    C21    O993      1.08625      .   S
    C402   O994      1.08623      .   S
    C22    O994      1.08623      .   S
    C403   O995      1.08627      .   S
    C23    O995      1.08627      .   S
    C408   O996      1.09855      .   S
    C28    O996      1.09855      .   S
    C409   O997      1.09854      .   S
    C29    O997      1.09854      .   S
    C410   O998      1.09860      .   S
    C30    O998      1.09860      .   S
    C411   O999      1.09862      .   S
    C31    O999      1.09862      .   S
    C416   O1000     1.09036      .   S
    C36    O1000     1.09036      .   S
    C417   O1001     1.09034      .   S
    C37    O1001     1.09034      .   S
    C418   O1002     1.09033      .   S
    C38    O1002     1.09033      .   S
    C419   O1003     1.09035      .   S
    C39    O1003     1.09035      .   S
    C424   O1004     1.08651      .   S
    C44    O1004     1.08651      .   S
    C425   O1005     1.08650      .   S
    C45    O1005     1.08650      .   S
    C426   O1006     1.08652      .   S
    C46    O1006     1.08652      .   S
    C427   O1007     1.08651      .   S
    C47    O1007     1.08651      .   S
