# CIF file generated by openbabel 2.4.90, see http://openbabel.sf.net
data_I
_chemical_name_common ''
_cell_length_a 14.233
_cell_length_b 15.7
_cell_length_c 15.696
_cell_angle_alpha 87.161
_cell_angle_beta 76.976
_cell_angle_gamma 76.979
_space_group_name_H-M_alt 'P 1'
_space_group_name_Hall 'P 1'
loop_
    _symmetry_equiv_pos_as_xyz
    x,y,z
loop_
    _atom_site_label
    _atom_site_type_symbol
    _atom_site_fract_x
    _atom_site_fract_y
    _atom_site_fract_z
    _atom_site_occupancy
    Zr0     Zr   0.06175   0.76317   0.73683   1.000
    Zr1     Zr   0.56351   0.76314   0.73674   1.000
    Zr2     Zr   0.31269   0.23695   0.26311   1.000
    Zr3     Zr   0.81088   0.23688   0.26300   1.000
    Zr4     Zr   0.06975   0.73691   0.23687   1.000
    Zr5     Zr   0.56819   0.73689   0.23689   1.000
    Zr6     Zr   0.05401   0.26312   0.76307   1.000
    Zr7     Zr   0.55537   0.26311   0.76306   1.000
    Zr8     Zr   0.11838   0.76010   0.88186   1.000
    Zr9     Zr   0.61988   0.76017   0.88166   1.000
    Zr10    Zr   0.43930   0.24119   0.11820   1.000
    Zr11    Zr   0.93848   0.23986   0.11812   1.000
    Zr12    Zr   0.43982   0.88184   0.23973   1.000
    Zr13    Zr   0.94091   0.88266   0.23980   1.000
    Zr14    Zr   0.50055   0.11834   0.75851   1.000
    Zr15    Zr   0.99947   0.11827   0.75849   1.000
    Zr16    Zr   0.18525   0.38177   0.26006   1.000
    Zr17    Zr   0.68437   0.38180   0.25860   1.000
    Zr18    Zr   0.00539   0.61811   0.73985   1.000
    Zr19    Zr   0.50672   0.61817   0.73989   1.000
    Zr20    Zr   0.12461   0.74152   0.38160   1.000
    Zr21    Zr   0.62326   0.74145   0.38170   1.000
    Zr22    Zr   0.18290   0.26020   0.61719   1.000
    Zr23    Zr   0.68385   0.26035   0.61816   1.000
    Zr24    Zr   0.16885   0.77042   0.80399   1.000
    Zr25    Zr   0.67069   0.77040   0.80392   1.000
    Zr26    Zr   0.02923   0.75517   0.89696   1.000
    Zr27    Zr   0.53069   0.75534   0.89642   1.000
    Zr28    Zr   0.45669   0.22961   0.19585   1.000
    Zr29    Zr   0.95518   0.22966   0.19604   1.000
    Zr30    Zr   0.35479   0.24767   0.10340   1.000
    Zr31    Zr   0.85450   0.24464   0.10284   1.000
    Zr32    Zr   0.42785   0.80400   0.22954   1.000
    Zr33    Zr   0.93002   0.80439   0.22965   1.000
    Zr34    Zr   0.02196   0.89890   0.24459   1.000
    Zr35    Zr   0.52158   0.89676   0.24456   1.000
    Zr36    Zr   0.44448   0.19593   0.77031   1.000
    Zr37    Zr   0.94338   0.19590   0.77021   1.000
    Zr38    Zr   0.09127   0.10352   0.75210   1.000
    Zr39    Zr   0.59241   0.10358   0.75211   1.000
    Zr40    Zr   0.16840   0.30392   0.27032   1.000
    Zr41    Zr   0.66694   0.30418   0.27028   1.000
    Zr42    Zr   0.26927   0.39694   0.25531   1.000
    Zr43    Zr   0.76887   0.39660   0.25214   1.000
    Zr44    Zr   0.45632   0.69600   0.72950   1.000
    Zr45    Zr   0.95482   0.69591   0.72957   1.000
    Zr46    Zr   0.09454   0.60315   0.74476   1.000
    Zr47    Zr   0.59589   0.60307   0.74481   1.000
    Zr48    Zr   0.18068   0.72974   0.30396   1.000
    Zr49    Zr   0.67905   0.72964   0.30397   1.000
    Zr50    Zr   0.03275   0.74792   0.39633   1.000
    Zr51    Zr   0.53140   0.74783   0.39675   1.000
    Zr52    Zr   0.19368   0.27035   0.69551   1.000
    Zr53    Zr   0.69581   0.27051   0.69601   1.000
    Zr54    Zr   0.10189   0.25538   0.60080   1.000
    Zr55    Zr   0.60209   0.25547   0.60323   1.000
    O56     O    0.89649   0.24225   0.11048   1.000
    O57     O    0.39705   0.24443   0.11080   1.000
    O58     O    0.94683   0.23476   0.15708   1.000
    O59     O    0.44799   0.23540   0.15702   1.000
    O60     O    0.38469   0.23328   0.22948   1.000
    O61     O    0.88303   0.23327   0.22952   1.000
    O62     O    0.49802   0.77045   0.23321   1.000
    O63     O    0.43383   0.84292   0.23463   1.000
    O64     O    0.99988   0.77065   0.23326   1.000
    O65     O    0.93546   0.84353   0.23472   1.000
    O66     O    0.12521   0.73332   0.27041   1.000
    O67     O    0.62362   0.73327   0.27043   1.000
    O68     O    0.48070   0.88930   0.24214   1.000
    O69     O    0.98143   0.89078   0.24220   1.000
    O70     O    0.72661   0.38920   0.25537   1.000
    O71     O    0.22726   0.38935   0.25768   1.000
    O72     O    0.67565   0.34299   0.26444   1.000
    O73     O    0.17683   0.34284   0.26519   1.000
    O74     O    0.73891   0.27053   0.26664   1.000
    O75     O    0.24055   0.27043   0.26672   1.000
    O76     O    0.15264   0.73563   0.34278   1.000
    O77     O    0.65116   0.73555   0.34284   1.000
    O78     O    0.07868   0.74472   0.38897   1.000
    O79     O    0.57733   0.74464   0.38923   1.000
    O80     O    0.14240   0.25779   0.60900   1.000
    O81     O    0.64297   0.25791   0.61070   1.000
    O82     O    0.18829   0.26527   0.65635   1.000
    O83     O    0.68983   0.26543   0.65709   1.000
    O84     O    0.12385   0.26673   0.72929   1.000
    O85     O    0.62559   0.26681   0.72953   1.000
    O86     O    0.50992   0.72957   0.73312   1.000
    O87     O    0.48152   0.65708   0.73470   1.000
    O88     O    0.00829   0.72954   0.73320   1.000
    O89     O    0.98010   0.65701   0.73471   1.000
    O90     O    0.61710   0.76677   0.77033   1.000
    O91     O    0.11530   0.76679   0.77041   1.000
    O92     O    0.04996   0.61063   0.74230   1.000
    O93     O    0.55131   0.61062   0.74235   1.000
    O94     O    0.04537   0.11090   0.75530   1.000
    O95     O    0.54648   0.11096   0.75531   1.000
    O96     O    0.97143   0.15709   0.76435   1.000
    O97     O    0.47251   0.15714   0.76441   1.000
    O98     O    0.49993   0.22952   0.76668   1.000
    O99     O    0.99870   0.22951   0.76664   1.000
    O100    O    0.64529   0.76528   0.84279   1.000
    O101    O    0.14361   0.76526   0.84293   1.000
    O102    O    0.57529   0.75775   0.88904   1.000
    O103    O    0.07380   0.75764   0.88941   1.000
    N104    N    0.89312   0.97361   0.74701   1.000
    O105    O    0.93418   0.02737   0.75122   1.000
    O106    O    0.95443   0.89965   0.74332   1.000
    N107    N    0.11709   0.25240   0.97412   1.000
    O108    O    0.09292   0.25621   0.89993   1.000
    O109    O    0.04919   0.24775   0.02761   1.000
    N110    N    0.61806   0.25239   0.97400   1.000
    O111    O    0.59396   0.25622   0.89985   1.000
    O112    O    0.55008   0.24826   0.02756   1.000
    N113    N    0.00624   0.52584   0.24723   1.000
    O114    O    0.07437   0.47232   0.25199   1.000
    O115    O    0.03069   0.60001   0.24356   1.000
    N116    N    0.75493   0.02535   0.25232   1.000
    O117    O    0.77654   0.09975   0.25612   1.000
    O118    O    0.82554   0.97234   0.24767   1.000
    N119    N    0.73193   0.74743   0.02650   1.000
    O120    O    0.68877   0.75216   0.97268   1.000
    O121    O    0.67238   0.74362   0.10043   1.000
    N122    N    0.86837   0.24788   0.47387   1.000
    O123    O    0.79827   0.25252   0.52746   1.000
    O124    O    0.84612   0.24402   0.39976   1.000
    N125    N    0.23183   0.74764   0.02575   1.000
    O126    O    0.17286   0.74382   0.09997   1.000
    O127    O    0.18812   0.75225   0.97231   1.000
    N128    N    0.39437   0.97354   0.74687   1.000
    O129    O    0.43536   0.02735   0.75114   1.000
    O130    O    0.45585   0.89961   0.74317   1.000
    N131    N    0.73085   0.75298   0.52555   1.000
    O132    O    0.68930   0.74877   0.47212   1.000
    O133    O    0.67000   0.75668   0.59980   1.000
    N134    N    0.36893   0.24777   0.47450   1.000
    O135    O    0.29831   0.25238   0.52752   1.000
    O136    O    0.34725   0.24391   0.40014   1.000
    N137    N    0.25524   0.02602   0.25232   1.000
    O138    O    0.32537   0.97247   0.24764   1.000
    O139    O    0.27749   0.10015   0.25612   1.000
    N140    N    0.23069   0.75319   0.52645   1.000
    O141    O    0.16927   0.75683   0.60038   1.000
    O142    O    0.18974   0.74890   0.47262   1.000
    N143    N    0.50557   0.52594   0.24745   1.000
    O144    O    0.52964   0.60009   0.24366   1.000
    O145    O    0.57357   0.47241   0.25153   1.000
    N146    N    0.89223   0.47408   0.75236   1.000
    O147    O    0.95115   0.39993   0.75616   1.000
    O148    O    0.93584   0.52757   0.74772   1.000
    N149    N    0.39324   0.47430   0.75263   1.000
    O150    O    0.45222   0.40008   0.75640   1.000
    O151    O    0.43696   0.52773   0.74791   1.000
loop_
    _geom_bond_atom_site_label_1
    _geom_bond_atom_site_label_2
    _geom_bond_distance
    _geom_bond_site_symmetry_2
    _ccdc_geom_bond_type
    Zr31   O56       0.62826      .   S
    Zr11   O56       0.62826      .   S
    Zr30   O57       0.62840      .   S
    Zr10   O57       0.62840      .   S
    Zr11   O58       0.64660      .   S
    Zr29   O58       0.64660      .   S
    Zr10   O59       0.64680      .   S
    Zr28   O59       0.64680      .   S
    Zr28   O60       1.03181      .   S
    Zr2    O60       1.03181      .   S
    Zr29   O61       1.03313      .   S
    Zr3    O61       1.03313      .   S
    Zr32   O62       1.03161      .   S
    Zr5    O62       1.03161      .   S
    Zr32   O63       0.64681      .   S
    Zr12   O63       0.64681      .   S
    Zr33   O64       1.02846      .   S
    Zr4    O64       1.02846  1_455   S
    Zr33   O65       0.64727      .   S
    Zr13   O65       0.64727      .   S
    Zr4    O66       1.03342      .   S
    Zr48   O66       1.03342      .   S
    Zr5    O67       1.03288      .   S
    Zr49   O67       1.03288      .   S
    Zr12   O68       0.62835      .   S
    Zr35   O68       0.62835      .   S
    Zr13   O69       0.62752      .   S
    Zr34   O69       0.62752  1_455   S
    Zr43   O70       0.62835      .   S
    Zr17   O70       0.62835      .   S
    Zr42   O71       0.62829      .   S
    Zr16   O71       0.62829      .   S
    Zr17   O72       0.64689      .   S
    Zr41   O72       0.64689      .   S
    Zr16   O73       0.64658      .   S
    Zr40   O73       0.64658      .   S
    Zr3    O74       1.03176      .   S
    Zr41   O74       1.03176      .   S
    Zr2    O75       1.03320      .   S
    Zr40   O75       1.03320      .   S
    Zr48   O76       0.64683      .   S
    Zr20   O76       0.64683      .   S
    Zr49   O77       0.64670      .   S
    Zr21   O77       0.64670      .   S
    Zr20   O78       0.62842      .   S
    Zr50   O78       0.62842      .   S
    Zr21   O79       0.62837      .   S
    Zr51   O79       0.62837      .   S
    Zr54   O80       0.62775      .   S
    Zr22   O80       0.62775      .   S
    Zr55   O81       0.62841      .   S
    Zr23   O81       0.62841      .   S
    Zr22   O82       0.64720      .   S
    Zr52   O82       0.64720      .   S
    Zr23   O83       0.64670      .   S
    Zr53   O83       0.64670      .   S
    Zr52   O84       1.02816      .   S
    Zr6    O84       1.02816      .   S
    Zr53   O85       1.03211      .   S
    Zr7    O85       1.03211      .   S
    Zr44   O86       1.03280      .   S
    Zr1    O86       1.03280      .   S
    Zr44   O87       0.64661      .   S
    Zr19   O87       0.64661      .   S
    Zr45   O88       1.03185  1_655   S
    Zr0    O88       1.03185      .   S
    Zr45   O89       0.64672      .   S
    Zr18   O89       0.64672  1_455   S
    Zr1    O90       1.03286      .   S
    Zr25   O90       1.03286      .   S
    Zr0    O91       1.03220      .   S
    Zr24   O91       1.03220      .   S
    Zr18   O92       0.62835      .   S
    Zr46   O92       0.62835      .   S
    Zr19   O93       0.62840      .   S
    Zr47   O93       0.62840      .   S
    Zr38   O94       0.62800      .   S
    Zr15   O94       0.62800  1_655   S
    Zr39   O95       0.62847      .   S
    Zr14   O95       0.62847      .   S
    Zr15   O96       0.64698      .   S
    Zr37   O96       0.64698      .   S
    Zr14   O97       0.64669      .   S
    Zr36   O97       0.64669      .   S
    Zr7    O98       1.03363      .   S
    Zr36   O98       1.03363      .   S
    Zr6    O99       1.03238  1_455   S
    Zr37   O99       1.03238      .   S
    Zr25   O100      0.64672      .   S
    Zr9    O100      0.64672      .   S
    Zr24   O101      0.64676      .   S
    Zr8    O101      0.64676      .   S
    Zr9    O102      0.62846      .   S
    Zr27   O102      0.62846      .   S
    Zr8    O103      0.62832      .   S
    Zr26   O103      0.62832      .   S
    N104   O105      1.14165  1_565   S
    Zr15   O105      1.89079      .   S
    N104   O106      1.28086      .   S
    Zr0    O106      2.32628  1_455   S
    N107   O108      1.28149      .   S
    Zr6    O108      2.32788      .   S
    N107   O109      1.14209  1_556   S
    Zr11   O109      1.89155  1_655   S
    N110   O111      1.28030      .   S
    Zr7    O111      2.32492      .   S
    N110   O112      1.14156  1_556   S
    Zr10   O112      1.89074      .   S
    N113   O114      1.14499      .   S
    Zr16   O114      1.89446      .   S
    N113   O115      1.28358      .   S
    Zr4    O115      2.33002      .   S
    N116   O117      1.28045      .   S
    Zr3    O117      2.32524      .   S
    N116   O118      1.14192  1_545   S
    Zr13   O118      1.89148      .   S
    N119   O120      1.14180  1_554   S
    Zr9    O120      1.89101      .   S
    N119   O121      1.28109      .   S
    Zr5    O121      2.32695      .   S
    N122   O123      1.14176      .   S
    Zr23   O123      1.89103      .   S
    N122   O124      1.28021      .   S
    Zr3    O124      2.32507      .   S
    N125   O126      1.28070      .   S
    Zr4    O126      2.32605      .   S
    N125   O127      1.14227  1_554   S
    Zr8    O127      1.89173      .   S
    N128   O129      1.14192  1_565   S
    Zr14   O129      1.89130      .   S
    N128   O130      1.28158      .   S
    Zr1    O130      2.32831      .   S
    N131   O132      1.14196      .   S
    Zr21   O132      1.89132      .   S
    N131   O133      1.28084      .   S
    Zr1    O133      2.32629      .   S
    N134   O135      1.14204      .   S
    Zr22   O135      1.89163      .   S
    N134   O136      1.28027      .   S
    Zr2    O136      2.32471      .   S
    N137   O138      1.14166  1_545   S
    Zr12   O138      1.89094      .   S
    N137   O139      1.28049      .   S
    Zr2    O139      2.32567      .   S
    N140   O141      1.28099      .   S
    Zr0    O141      2.32673      .   S
    N140   O142      1.14167      .   S
    Zr20   O142      1.89083      .   S
    N143   O144      1.28049      .   S
    Zr5    O144      2.32544      .   S
    N143   O145      1.14157      .   S
    Zr17   O145      1.89080      .   S
    N146   O147      1.27982      .   S
    Zr6    O147      2.32380  1_455   S
    N146   O148      1.14200      .   S
    Zr18   O148      1.89125  1_455   S
    N149   O150      1.28096      .   S
    Zr7    O150      2.32699      .   S
    N149   O151      1.14223      .   S
    Zr19   O151      1.89177      .   S
