# CIF file generated by openbabel 2.4.90, see http://openbabel.sf.net
data_I
_chemical_name_common ''
_cell_length_a 14.233
_cell_length_b 15.7
_cell_length_c 15.696
_cell_angle_alpha 87.161
_cell_angle_beta 76.976
_cell_angle_gamma 76.979
_space_group_name_H-M_alt 'P 1'
_space_group_name_Hall 'P 1'
loop_
    _symmetry_equiv_pos_as_xyz
    x,y,z
loop_
    _atom_site_label
    _atom_site_type_symbol
    _atom_site_fract_x
    _atom_site_fract_y
    _atom_site_fract_z
    _atom_site_occupancy
    N0      N    0.89312   0.97361   0.74701   1.000
    N1      N    0.11709   0.25240   0.97412   1.000
    N2      N    0.61806   0.25239   0.97400   1.000
    N3      N    0.00624   0.52584   0.24723   1.000
    N4      N    0.75493   0.02535   0.25232   1.000
    N5      N    0.73193   0.74743   0.02650   1.000
    N6      N    0.86837   0.24788   0.47387   1.000
    N7      N    0.23183   0.74764   0.02575   1.000
    N8      N    0.39437   0.97354   0.74687   1.000
    N9      N    0.73085   0.75298   0.52555   1.000
    N10     N    0.36893   0.24777   0.47450   1.000
    N11     N    0.25524   0.02602   0.25232   1.000
    N12     N    0.23069   0.75319   0.52645   1.000
    N13     N    0.50557   0.52594   0.24745   1.000
    N14     N    0.89223   0.47408   0.75236   1.000
    N15     N    0.39324   0.47430   0.75263   1.000
    Zr16    Zr   0.58208   0.20961   0.70877   1.000
    O17     O    0.58802   0.23291   0.80431   1.000
    O18     O    0.51715   0.30485   0.73259   1.000
    O19     O    0.50872   0.11848   0.72995   1.000
    O20     O    0.69018   0.23107   0.61812   1.000
    Zr21    Zr   0.06185   0.70943   0.79055   1.000
    O22     O    0.11556   0.73313   0.69546   1.000
    O23     O    0.00814   0.80454   0.76693   1.000
    O24     O    0.12499   0.73084   0.88143   1.000
    O25     O    0.99885   0.61850   0.76914   1.000
    Zr26    Zr   0.04295   0.79172   0.29040   1.000
    O27     O    0.93425   0.88203   0.26904   1.000
    O28     O    0.11634   0.77031   0.38151   1.000
    O29     O    0.10791   0.76777   0.19518   1.000
    O30     O    0.03682   0.69587   0.26698   1.000
    Zr31    Zr   0.81132   0.29052   0.20872   1.000
    O32     O    0.82872   0.26727   0.30424   1.000
    O33     O    0.79393   0.19513   0.23242   1.000
    O34     O    0.69244   0.38146   0.23013   1.000
    O35     O    0.93025   0.26913   0.11817   1.000
    Zr36    Zr   0.08095   0.20954   0.70820   1.000
    O37     O    0.18963   0.23096   0.61786   1.000
    O38     O    0.08693   0.23287   0.80406   1.000
    O39     O    0.01605   0.30473   0.73218   1.000
    O40     O    0.00756   0.11845   0.72971   1.000
    Zr41    Zr   0.54159   0.79120   0.29045   1.000
    O42     O    0.53562   0.69564   0.26706   1.000
    O43     O    0.60699   0.76741   0.19544   1.000
    O44     O    0.61545   0.76998   0.38128   1.000
    O45     O    0.43348   0.88184   0.26904   1.000
    Zr46    Zr   0.56339   0.70947   0.79042   1.000
    O47     O    0.62608   0.73081   0.88155   1.000
    O48     O    0.50017   0.61860   0.76916   1.000
    O49     O    0.50962   0.80454   0.76679   1.000
    O50     O    0.61670   0.73307   0.69511   1.000
    Zr51    Zr   0.31234   0.29115   0.20946   1.000
    O52     O    0.19336   0.38173   0.23073   1.000
    O53     O    0.29491   0.19565   0.23279   1.000
    O54     O    0.32980   0.26753   0.30480   1.000
    O55     O    0.43121   0.26971   0.11851   1.000
loop_
    _geom_bond_atom_site_label_1
    _geom_bond_atom_site_label_2
    _geom_bond_distance
    _geom_bond_site_symmetry_2
    _ccdc_geom_bond_type
    Zr16   O17       1.58596      .   S
    N2     O17       2.83239      .   S
    Zr16   O18       1.58314      .   S
    N15    O18       2.82946      .   S
    Zr16   O19       1.92806      .   S
    N8     O19       3.05157  1_565   S
    Zr16   O20       1.92468      .   S
    N6     O20       3.04682      .   S
    Zr21   O22       1.58398      .   S
    N12    O22       2.83061      .   S
    Zr21   O23       1.58427      .   S
    N0     O23       2.83093  1_655   S
    Zr21   O24       1.92786      .   S
    N7     O24       3.05061  1_554   S
    Zr21   O25       1.92754  1_455   S
    N14    O25       3.04997      .   S
    Zr26   O27       1.92740  1_455   S
    N4     O27       3.04976  1_545   S
    Zr26   O28       1.92785      .   S
    N12    O28       3.05079      .   S
    Zr26   O29       1.58303      .   S
    N7     O29       2.82870      .   S
    Zr26   O30       1.59246      .   S
    N3     O30       2.84220      .   S
    Zr31   O32       1.58581      .   S
    N6     O32       2.83196      .   S
    Zr31   O33       1.58511      .   S
    N4     O33       2.83143      .   S
    Zr31   O34       1.92795      .   S
    N13    O34       3.05119      .   S
    Zr31   O35       1.92489      .   S
    N1     O35       3.04744  1_456   S
    Zr36   O37       1.92746      .   S
    N10    O37       3.04991      .   S
    Zr36   O38       1.59130      .   S
    N1     O38       2.83891      .   S
    Zr36   O39       1.58292      .   S
    N14    O39       2.82767  1_655   S
    Zr36   O40       1.92771      .   S
    N0     O40       3.05066  1_665   S
    Zr41   O42       1.58712      .   S
    N13    O42       2.83376      .   S
    Zr41   O43       1.58197      .   S
    N5     O43       2.82809      .   S
    Zr41   O44       1.92858      .   S
    N9     O44       3.05216      .   S
    Zr41   O45       1.92469      .   S
    N11    O45       3.04671  1_545   S
    Zr46   O47       1.92659      .   S
    N5     O47       3.04874  1_554   S
    Zr46   O48       1.92794      .   S
    N15    O48       3.05062      .   S
    Zr46   O49       1.58410      .   S
    N8     O49       2.83133      .   S
    Zr46   O50       1.58469      .   S
    N9     O50       2.83158      .   S
    Zr51   O52       1.92589      .   S
    N3     O52       3.05123      .   S
    Zr51   O53       1.58616      .   S
    N11    O53       2.83264      .   S
    Zr51   O54       1.58417      .   S
    N10    O54       2.83029      .   S
    Zr51   O55       1.92774      .   S
    N2     O55       3.05084  1_556   S
