# CIF file generated by openbabel 2.4.90, see http://openbabel.sf.net
data_I
_chemical_name_common ''
_cell_length_a 16.501
_cell_length_b 19.542
_cell_length_c 19.54
_cell_angle_alpha 90
_cell_angle_beta 89.994
_cell_angle_gamma 90.039
_space_group_name_H-M_alt 'P 1'
_space_group_name_Hall 'P 1'
loop_
    _symmetry_equiv_pos_as_xyz
    x,y,z
loop_
    _atom_site_label
    _atom_site_type_symbol
    _atom_site_fract_x
    _atom_site_fract_y
    _atom_site_fract_z
    _atom_site_occupancy
    N0      N    0.25842   0.30359   0.30361   1.000
    N1      N    0.99994   0.83611   0.36821   1.000
    N2      N    0.00005   0.16389   0.63170   1.000
    N3      N    0.79454   0.68453   0.95309   1.000
    N4      N    0.49996   0.33611   0.13169   1.000
    N5      N    0.20544   0.31548   0.04691   1.000
    N6      N    0.29448   0.54693   0.18452   1.000
    N7      N    0.70554   0.18451   0.54692   1.000
    N8      N    0.00003   0.36830   0.83610   1.000
    N9      N    0.24156   0.19641   0.80362   1.000
    N10     N    0.70548   0.54690   0.18453   1.000
    N11     N    0.79445   0.31548   0.04691   1.000
    N12     N    0.75843   0.80359   0.19638   1.000
    N13     N    0.25838   0.69641   0.69641   1.000
    N14     N    0.74161   0.30359   0.30359   1.000
    N15     N    0.50001   0.86831   0.66392   1.000
    N16     N    0.79450   0.04693   0.31548   1.000
    N17     N    0.70543   0.81547   0.45309   1.000
    N18     N    0.99996   0.63169   0.16391   1.000
    N19     N    0.50003   0.66389   0.86822   1.000
    N20     N    0.74156   0.69640   0.69640   1.000
    N21     N    0.29444   0.81549   0.45308   1.000
    N22     N    0.79449   0.95309   0.68455   1.000
    N23     N    0.20554   0.68451   0.95310   1.000
    N24     N    0.75837   0.19642   0.80359   1.000
    N25     N    0.70550   0.45307   0.81550   1.000
    N26     N    0.20548   0.95307   0.68452   1.000
    N27     N    0.29450   0.45310   0.81546   1.000
    N28     N    0.29455   0.18453   0.54692   1.000
    N29     N    0.49998   0.13170   0.33609   1.000
    N30     N    0.24161   0.80359   0.19640   1.000
    N31     N    0.20550   0.04691   0.31546   1.000
    Zr32    Zr   0.81614   0.66644   0.11678   1.000
    O33     O    0.78002   0.62693   0.13838   1.000
    O34     O    0.80855   0.67209   0.06327   1.000
    O35     O    0.87658   0.65512   0.13144   1.000
    O36     O    0.79787   0.71142   0.14296   1.000
    Zr37    Zr   0.68386   0.38321   0.16643   1.000
    O38     O    0.69146   0.43672   0.17208   1.000
    O39     O    0.62339   0.36856   0.15510   1.000
    O40     O    0.70214   0.35703   0.21141   1.000
    O41     O    0.71996   0.36162   0.12692   1.000
    Zr42    Zr   0.18385   0.33356   0.88324   1.000
    O43     O    0.20212   0.28858   0.85706   1.000
    O44     O    0.12341   0.34488   0.86858   1.000
    O45     O    0.19144   0.32791   0.93675   1.000
    O46     O    0.21997   0.37307   0.86163   1.000
    Zr47    Zr   0.18386   0.88321   0.33357   1.000
    O48     O    0.20214   0.85702   0.28858   1.000
    O49     O    0.19146   0.93672   0.32791   1.000
    O50     O    0.12338   0.86856   0.34478   1.000
    O51     O    0.21995   0.86162   0.37308   1.000
    Zr52    Zr   0.31613   0.61679   0.83358   1.000
    O53     O    0.28003   0.63838   0.87309   1.000
    O54     O    0.29785   0.64297   0.78860   1.000
    O55     O    0.30853   0.56328   0.82791   1.000
    O56     O    0.37660   0.63144   0.84479   1.000
    Zr57    Zr   0.81612   0.33361   0.88323   1.000
    O58     O    0.78002   0.37310   0.86163   1.000
    O59     O    0.87660   0.34492   0.86857   1.000
    O60     O    0.80851   0.32795   0.93674   1.000
    O61     O    0.79784   0.28862   0.85704   1.000
    Zr62    Zr   0.81613   0.88324   0.33358   1.000
    O63     O    0.79786   0.85705   0.28858   1.000
    O64     O    0.78000   0.86163   0.37308   1.000
    O65     O    0.87657   0.86858   0.34488   1.000
    O66     O    0.80853   0.93675   0.32793   1.000
    Zr67    Zr   0.18386   0.11676   0.66643   1.000
    O68     O    0.19146   0.06325   0.67208   1.000
    O69     O    0.20213   0.14295   0.71142   1.000
    O70     O    0.21999   0.13837   0.62693   1.000
    O71     O    0.12342   0.13142   0.65511   1.000
    Zr72    Zr   0.81613   0.11679   0.66644   1.000
    O73     O    0.80852   0.06328   0.67210   1.000
    O74     O    0.79785   0.14298   0.71142   1.000
    O75     O    0.87661   0.13144   0.65512   1.000
    O76     O    0.78004   0.13838   0.62693   1.000
    Zr77    Zr   0.68386   0.61676   0.83360   1.000
    O78     O    0.69147   0.56325   0.82795   1.000
    O79     O    0.62341   0.63141   0.84489   1.000
    O80     O    0.70213   0.64295   0.78861   1.000
    O81     O    0.71999   0.63836   0.87310   1.000
    Zr82    Zr   0.18387   0.66639   0.11678   1.000
    O83     O    0.19148   0.67205   0.06327   1.000
    O84     O    0.12339   0.65508   0.13144   1.000
    O85     O    0.20215   0.71138   0.14296   1.000
    O86     O    0.21997   0.62690   0.13838   1.000
    Zr87    Zr   0.31612   0.83360   0.61679   1.000
    O88     O    0.29784   0.78861   0.64297   1.000
    O89     O    0.28001   0.87310   0.63839   1.000
    O90     O    0.37658   0.84492   0.63145   1.000
    O91     O    0.30850   0.82795   0.56327   1.000
    Zr92    Zr   0.68385   0.83355   0.61679   1.000
    O93     O    0.71996   0.87307   0.63839   1.000
    O94     O    0.70212   0.78858   0.64297   1.000
    O95     O    0.62340   0.84488   0.63145   1.000
    O96     O    0.69143   0.82791   0.56327   1.000
    Zr97    Zr   0.68387   0.16639   0.38320   1.000
    O98     O    0.62340   0.15508   0.36855   1.000
    O99     O    0.69149   0.17205   0.43672   1.000
    O100    O    0.70215   0.21139   0.35702   1.000
    O101    O    0.71998   0.12690   0.36161   1.000
    Zr102   Zr   0.31614   0.16645   0.38322   1.000
    O103    O    0.37659   0.15512   0.36856   1.000
    O104    O    0.30855   0.17209   0.43674   1.000
    O105    O    0.28003   0.12693   0.36162   1.000
    O106    O    0.29787   0.21142   0.35704   1.000
    Zr107   Zr   0.31613   0.38324   0.16640   1.000
    O108    O    0.30852   0.43675   0.17206   1.000
    O109    O    0.28000   0.36164   0.12690   1.000
    O110    O    0.37658   0.36859   0.15508   1.000
    O111    O    0.29786   0.35705   0.21139   1.000
loop_
    _geom_bond_atom_site_label_1
    _geom_bond_atom_site_label_2
    _geom_bond_distance
    _geom_bond_site_symmetry_2
    _ccdc_geom_bond_type
    Zr32   O33       1.06253      .   S
    N10    O33       2.18373      .   S
    Zr32   O34       1.05891      .   S
    N3     O34       2.17883  1_556   S
    Zr32   O35       1.06124      .   S
    N18    O35       2.18135      .   S
    Zr32   O36       1.06079      .   S
    N12    O36       2.18160      .   S
    Zr37   O38       1.05893      .   S
    N10    O38       2.17904      .   S
    Zr37   O39       1.06126      .   S
    N4     O39       2.18137      .   S
    Zr37   O40       1.06086      .   S
    N14    O40       2.18171      .   S
    Zr37   O41       1.06257      .   S
    N11    O41       2.18383      .   S
    Zr42   O43       1.06087      .   S
    N9     O43       2.18177      .   S
    Zr42   O44       1.06127      .   S
    N8     O44       2.18139      .   S
    Zr42   O45       1.05879      .   S
    N5     O45       2.17858  1_554   S
    Zr42   O46       1.06258      .   S
    N27    O46       2.18386      .   S
    Zr47   O48       1.06099      .   S
    N30    O48       2.18164      .   S
    Zr47   O49       1.05897      .   S
    N31    O49       2.17913  1_545   S
    Zr47   O50       1.06081      .   S
    N1     O50       2.18146  1_655   S
    Zr47   O51       1.06261      .   S
    N21    O51       2.18392      .   S
    Zr52   O53       1.06256      .   S
    N23    O53       2.18379      .   S
    Zr52   O54       1.06091      .   S
    N13    O54       2.18184      .   S
    Zr52   O55       1.05896      .   S
    N27    O55       2.17903      .   S
    Zr52   O56       1.06081      .   S
    N19    O56       2.18145      .   S
    Zr57   O58       1.06271      .   S
    N25    O58       2.18399      .   S
    Zr57   O59       1.06127      .   S
    N8     O59       2.18133  1_455   S
    Zr57   O60       1.05888      .   S
    N11    O60       2.17880  1_554   S
    Zr57   O61       1.06084      .   S
    N24    O61       2.18171      .   S
    Zr62   O63       1.06102      .   S
    N12    O63       2.18171      .   S
    Zr62   O64       1.06260      .   S
    N17    O64       2.18389      .   S
    Zr62   O65       1.06114      .   S
    N1     O65       2.18104      .   S
    Zr62   O66       1.05908      .   S
    N16    O66       2.17931  1_545   S
    Zr67   O68       1.05908      .   S
    N26    O68       2.17930  1_565   S
    Zr67   O69       1.06084      .   S
    N9     O69       2.18165      .   S
    Zr67   O70       1.06259      .   S
    N28    O70       2.18386      .   S
    Zr67   O71       1.06124      .   S
    N2     O71       2.18134      .   S
    Zr72   O73       1.05898      .   S
    N22    O73       2.17913  1_565   S
    Zr72   O74       1.06085      .   S
    N24    O74       2.18169      .   S
    Zr72   O75       1.06125      .   S
    N2     O75       2.18137  1_455   S
    Zr72   O76       1.06263      .   S
    N7     O76       2.18397      .   S
    Zr77   O78       1.05905      .   S
    N25    O78       2.17924      .   S
    Zr77   O79       1.06115      .   S
    N19    O79       2.18106      .   S
    Zr77   O80       1.06086      .   S
    N20    O80       2.18175      .   S
    Zr77   O81       1.06260      .   S
    N3     O81       2.18386      .   S
    Zr82   O83       1.05890      .   S
    N23    O83       2.17885  1_556   S
    Zr82   O84       1.06126      .   S
    N18    O84       2.18136  1_655   S
    Zr82   O85       1.06083      .   S
    N30    O85       2.18167      .   S
    Zr82   O86       1.06268      .   S
    N6     O86       2.18401      .   S
    Zr87   O88       1.06081      .   S
    N13    O88       2.18163      .   S
    Zr87   O89       1.06267      .   S
    N26    O89       2.18398      .   S
    Zr87   O90       1.06125      .   S
    N15    O90       2.18136      .   S
    Zr87   O91       1.05903      .   S
    N21    O91       2.17922      .   S
    Zr92   O93       1.06256      .   S
    N22    O93       2.18381      .   S
    Zr92   O94       1.06084      .   S
    N20    O94       2.18171      .   S
    Zr92   O95       1.06127      .   S
    N15    O95       2.18140      .   S
    Zr92   O96       1.05893      .   S
    N17    O96       2.17902      .   S
    Zr97   O98       1.06121      .   S
    N29    O98       2.18129      .   S
    Zr97   O99       1.05905      .   S
    N7     O99       2.17948      .   S
    Zr97   O100      1.06077      .   S
    N14    O100      2.18159      .   S
    Zr97   O101      1.06261      .   S
    N16    O101      2.18391      .   S
    Zr102  O103      1.06127      .   S
    N29    O103      2.18139      .   S
    Zr102  O104      1.05894      .   S
    N28    O104      2.17904      .   S
    Zr102  O105      1.06256      .   S
    N31    O105      2.18381      .   S
    Zr102  O106      1.06084      .   S
    N0     O106      2.18172      .   S
    Zr107  O108      1.05907      .   S
    N6     O108      2.17926      .   S
    Zr107  O109      1.06258      .   S
    N5     O109      2.18387      .   S
    Zr107  O110      1.06122      .   S
    N4     O110      2.18131      .   S
    Zr107  O111      1.06091      .   S
    N0     O111      2.18183      .   S
