# CIF file generated by openbabel 2.4.90, see http://openbabel.sf.net
data_I
_chemical_name_common ''
_cell_length_a 16.501
_cell_length_b 19.542
_cell_length_c 19.54
_cell_angle_alpha 90
_cell_angle_beta 89.994
_cell_angle_gamma 90.039
_space_group_name_H-M_alt 'P 1'
_space_group_name_Hall 'P 1'
loop_
    _symmetry_equiv_pos_as_xyz
    x,y,z
loop_
    _atom_site_label
    _atom_site_type_symbol
    _atom_site_fract_x
    _atom_site_fract_y
    _atom_site_fract_z
    _atom_site_occupancy
    Zr0     Zr   0.81613   0.88324   0.33358   1.000
    Zr1     Zr   0.81613   0.11679   0.66644   1.000
    Zr2     Zr   0.31614   0.16645   0.38322   1.000
    Zr3     Zr   0.31612   0.83360   0.61679   1.000
    Zr4     Zr   0.68386   0.61676   0.83360   1.000
    Zr5     Zr   0.68386   0.38321   0.16643   1.000
    Zr6     Zr   0.18385   0.33356   0.88324   1.000
    Zr7     Zr   0.18387   0.66639   0.11678   1.000
    Zr8     Zr   0.18386   0.11676   0.66643   1.000
    Zr9     Zr   0.18386   0.88321   0.33357   1.000
    Zr10    Zr   0.68385   0.83355   0.61679   1.000
    Zr11    Zr   0.68387   0.16639   0.38320   1.000
    Zr12    Zr   0.31613   0.38324   0.16640   1.000
    Zr13    Zr   0.31613   0.61679   0.83358   1.000
    Zr14    Zr   0.81614   0.66644   0.11678   1.000
    Zr15    Zr   0.81612   0.33361   0.88323   1.000
    N16     N    0.25842   0.30359   0.30361   1.000
    O17     O    0.27960   0.25639   0.33086   1.000
    O18     O    0.27959   0.33086   0.25639   1.000
    N19     N    0.99994   0.83611   0.36821   1.000
    O20     O    0.93702   0.85393   0.35618   1.000
    O21     O    0.06291   0.85391   0.35600   1.000
    N22     N    0.00005   0.16389   0.63170   1.000
    O23     O    0.06297   0.14607   0.64379   1.000
    O24     O    0.93708   0.14609   0.64379   1.000
    N25     N    0.79454   0.68453   0.95309   1.000
    O26     O    0.75611   0.65997   0.91260   1.000
    O27     O    0.80096   0.67773   0.00975   1.000
    N28     N    0.49996   0.33611   0.13169   1.000
    O29     O    0.56292   0.35391   0.14378   1.000
    O30     O    0.43702   0.35393   0.14377   1.000
    N31     N    0.20544   0.31548   0.04691   1.000
    O32     O    0.19903   0.32227   0.99025   1.000
    O33     O    0.24387   0.34003   0.08740   1.000
    N34     N    0.29448   0.54693   0.18452   1.000
    O35     O    0.25607   0.58741   0.15997   1.000
    O36     O    0.30091   0.49026   0.17772   1.000
    N37     N    0.70554   0.18451   0.54692   1.000
    O38     O    0.74394   0.15997   0.58742   1.000
    O39     O    0.69910   0.17771   0.49024   1.000
    N40     N    0.00003   0.36830   0.83610   1.000
    O41     O    0.06296   0.35621   0.85391   1.000
    O42     O    0.93707   0.35624   0.85391   1.000
    N43     N    0.24156   0.19641   0.80362   1.000
    O44     O    0.22039   0.24361   0.83087   1.000
    O45     O    0.22040   0.16914   0.75640   1.000
    N46     N    0.70548   0.54690   0.18453   1.000
    O47     O    0.69906   0.49024   0.17772   1.000
    O48     O    0.74390   0.58741   0.15998   1.000
    N49     N    0.79445   0.31548   0.04691   1.000
    O50     O    0.75606   0.34003   0.08741   1.000
    O51     O    0.80089   0.32229   0.99025   1.000
    N52     N    0.75843   0.80359   0.19638   1.000
    O53     O    0.77960   0.75639   0.16913   1.000
    O54     O    0.77959   0.83086   0.24358   1.000
    N55     N    0.25838   0.69641   0.69641   1.000
    O56     O    0.27955   0.74362   0.66916   1.000
    O57     O    0.27956   0.66915   0.74362   1.000
    N58     N    0.74161   0.30359   0.30359   1.000
    O59     O    0.72043   0.25638   0.33084   1.000
    O60     O    0.72042   0.33085   0.25639   1.000
    N61     N    0.50001   0.86831   0.66392   1.000
    O62     O    0.56295   0.85621   0.64611   1.000
    O63     O    0.43705   0.85624   0.64610   1.000
    N64     N    0.79450   0.04693   0.31548   1.000
    O65     O    0.80093   0.99026   0.32228   1.000
    O66     O    0.75609   0.08741   0.34002   1.000
    N67     N    0.70543   0.81547   0.45309   1.000
    O68     O    0.69902   0.82226   0.50976   1.000
    O69     O    0.74387   0.84003   0.41259   1.000
    N70     N    0.99996   0.63169   0.16391   1.000
    O71     O    0.93703   0.64379   0.14610   1.000
    O72     O    0.06292   0.64376   0.14609   1.000
    N73     N    0.50003   0.66389   0.86822   1.000
    O74     O    0.43707   0.64609   0.85601   1.000
    O75     O    0.56297   0.64607   0.85619   1.000
    N76     N    0.74156   0.69640   0.69640   1.000
    O77     O    0.72039   0.74360   0.66915   1.000
    O78     O    0.72040   0.66914   0.74362   1.000
    N79     N    0.29444   0.81549   0.45308   1.000
    O80     O    0.25605   0.84003   0.41258   1.000
    O81     O    0.30089   0.82229   0.50976   1.000
    N82     N    0.79449   0.95309   0.68455   1.000
    O83     O    0.75608   0.91258   0.66000   1.000
    O84     O    0.80092   0.00976   0.67775   1.000
    N85     N    0.20554   0.68451   0.95310   1.000
    O86     O    0.19910   0.67771   0.00976   1.000
    O87     O    0.24393   0.65997   0.91260   1.000
    N88     N    0.75837   0.19642   0.80359   1.000
    O89     O    0.77955   0.24363   0.83086   1.000
    O90     O    0.77956   0.16916   0.75639   1.000
    N91     N    0.70550   0.45307   0.81550   1.000
    O92     O    0.74392   0.41259   0.84003   1.000
    O93     O    0.69907   0.50974   0.82229   1.000
    N94     N    0.20548   0.95307   0.68452   1.000
    O95     O    0.24390   0.91259   0.65998   1.000
    O96     O    0.19906   0.00973   0.67773   1.000
    N97     N    0.29450   0.45310   0.81546   1.000
    O98     O    0.30092   0.50976   0.82225   1.000
    O99     O    0.25609   0.41259   0.84002   1.000
    N100    N    0.29455   0.18453   0.54692   1.000
    O101    O    0.30096   0.17774   0.49025   1.000
    O102    O    0.25612   0.15997   0.58742   1.000
    N103    N    0.49998   0.13170   0.33609   1.000
    O104    O    0.43704   0.14379   0.35390   1.000
    O105    O    0.56294   0.14376   0.35390   1.000
    N106    N    0.24161   0.80359   0.19640   1.000
    O107    O    0.22043   0.75637   0.16915   1.000
    O108    O    0.22043   0.83084   0.24359   1.000
    N109    N    0.20550   0.04691   0.31546   1.000
    O110    O    0.19907   0.99023   0.32226   1.000
    O111    O    0.24391   0.08742   0.34001   1.000
loop_
    _geom_bond_atom_site_label_1
    _geom_bond_atom_site_label_2
    _geom_bond_distance
    _geom_bond_site_symmetry_2
    _ccdc_geom_bond_type
    N16    O17       1.12111      .   S
    Zr2    O17       2.12169      .   S
    N16    O18       1.12114      .   S
    Zr12   O18       2.12183      .   S
    N19    O20       1.12041      .   S
    Zr0    O20       2.12228      .   S
    N19    O21       1.12116  1_655   S
    Zr9    O21       2.12162      .   S
    N22    O23       1.12060      .   S
    Zr8    O23       2.12248      .   S
    N22    O24       1.12062  1_455   S
    Zr1    O24       2.12249      .   S
    N25    O26       1.12164      .   S
    Zr4    O26       2.12520      .   S
    N25    O27       1.12013  1_556   S
    Zr14   O27       2.11782      .   S
    N28    O29       1.12061      .   S
    Zr5    O29       2.12252      .   S
    N28    O30       1.12059      .   S
    Zr12   O30       2.12244      .   S
    N31    O32       1.12000  1_554   S
    Zr6    O32       2.11758      .   S
    N31    O33       1.12167      .   S
    Zr12   O33       2.12516      .   S
    N34    O35       1.12171      .   S
    Zr7    O35       2.12536      .   S
    N34    O36       1.12040      .   S
    Zr12   O36       2.11814      .   S
    N37    O38       1.12172      .   S
    Zr1    O38       2.12527      .   S
    N37    O39       1.12064      .   S
    Zr11   O39       2.11810      .   S
    N40    O41       1.12063      .   S
    Zr6    O41       2.12253      .   S
    N40    O42       1.12056  1_455   S
    Zr15   O42       2.12254      .   S
    N43    O44       1.12113      .   S
    Zr6    O44       2.12174      .   S
    N43    O45       1.12104      .   S
    Zr8    O45       2.12168      .   S
    N46    O47       1.12033      .   S
    Zr5    O47       2.11785      .   S
    N46    O48       1.12158      .   S
    Zr14   O48       2.12506      .   S
    N49    O50       1.12164      .   S
    Zr5    O50       2.12514      .   S
    N49    O51       1.12013  1_554   S
    Zr15   O51       2.11776      .   S
    N52    O53       1.12104      .   S
    Zr14   O53       2.12158      .   S
    N52    O54       1.12091      .   S
    Zr0    O54       2.12204      .   S
    N55    O56       1.12104      .   S
    Zr3    O56       2.12162      .   S
    N55    O57       1.12116      .   S
    Zr13   O57       2.12181      .   S
    N58    O59       1.12105      .   S
    Zr11   O59       2.12154      .   S
    N58    O60       1.12108      .   S
    Zr5    O60       2.12172      .   S
    N61    O62       1.12063      .   S
    Zr10   O62       2.12254      .   S
    N61    O63       1.12062      .   S
    Zr3    O63       2.12250      .   S
    N64    O65       1.12044  1_545   S
    Zr0    O65       2.11816      .   S
    N64    O66       1.12168      .   S
    Zr11   O66       2.12523      .   S
    N67    O68       1.12030      .   S
    Zr10   O68       2.11786      .   S
    N67    O69       1.12167      .   S
    Zr0    O69       2.12519      .   S
    N70    O71       1.12060      .   S
    Zr14   O71       2.12249      .   S
    N70    O72       1.12061  1_655   S
    Zr7    O72       2.12252      .   S
    N73    O74       1.12115      .   S
    Zr13   O74       2.12161      .   S
    N73    O75       1.12042      .   S
    Zr4    O75       2.12230      .   S
    N76    O77       1.12110      .   S
    Zr10   O77       2.12168      .   S
    N76    O78       1.12112      .   S
    Zr4    O78       2.12172      .   S
    N79    O80       1.12168      .   S
    Zr9    O80       2.12523      .   S
    N79    O81       1.12040      .   S
    Zr3    O81       2.11806      .   S
    N82    O83       1.12163      .   S
    Zr10   O83       2.12512      .   S
    N82    O84       1.12036  1_565   S
    Zr1    O84       2.11795      .   S
    N85    O86       1.12016  1_556   S
    Zr7    O86       2.11779      .   S
    N85    O87       1.12161      .   S
    Zr13   O87       2.12511      .   S
    N88    O89       1.12110      .   S
    Zr15   O89       2.12169      .   S
    N88    O90       1.12106      .   S
    Zr1    O90       2.12171      .   S
    N91    O92       1.12165      .   S
    Zr15   O92       2.12543      .   S
    N91    O93       1.12040      .   S
    Zr4    O93       2.11811      .   S
    N94    O95       1.12169      .   S
    Zr3    O95       2.12534      .   S
    N94    O96       1.12043  1_565   S
    Zr8    O96       2.11815      .   S
    N97    O98       1.12028      .   S
    Zr13   O98       2.11791      .   S
    N97    O99       1.12166      .   S
    Zr6    O99       2.12516      .   S
    N100   O101      1.12032      .   S
    Zr2    O101      2.11788      .   S
    N100   O102      1.12165      .   S
    Zr8    O102      2.12518      .   S
    N103   O104      1.12063      .   S
    Zr2    O104      2.12253      .   S
    N103   O105      1.12059      .   S
    Zr11   O105      2.12242      .   S
    N106   O107      1.12107      .   S
    Zr7    O107      2.12166      .   S
    N106   O108      1.12087      .   S
    Zr9    O108      2.12199      .   S
    N109   O110      1.12036  1_545   S
    Zr9    O110      2.11795      .   S
    N109   O111      1.12163      .   S
    Zr2    O111      2.12511      .   S
