# CIF file generated by openbabel 2.4.90, see http://openbabel.sf.net
data_I
_chemical_name_common ''
_cell_length_a 13.219
_cell_length_b 14.33
_cell_length_c 14.337
_cell_angle_alpha 77.767
_cell_angle_beta 62.589
_cell_angle_gamma 62.647
_space_group_name_H-M_alt 'P 1'
_space_group_name_Hall 'P 1'
loop_
    _symmetry_equiv_pos_as_xyz
    x,y,z
loop_
    _atom_site_label
    _atom_site_type_symbol
    _atom_site_fract_x
    _atom_site_fract_y
    _atom_site_fract_z
    _atom_site_occupancy
    H0      H    0.36302   0.33439   0.48799   1.000
    H1      H    0.25492   0.37671   0.61785   1.000
    H2      H    0.68594   0.16538   0.01223   1.000
    H3      H    0.74956   0.12305   0.88239   1.000
    H4      H    0.35136   0.51193   0.83434   1.000
    H5      H    0.37274   0.38205   0.87675   1.000
    H6      H    0.19793   0.98767   0.66531   1.000
    H7      H    0.13217   0.11750   0.62287   1.000
    H8      H    0.31405   0.98800   0.83441   1.000
    H9      H    0.25049   0.11784   0.87670   1.000
    H10     H    0.63695   0.51217   0.66500   1.000
    H11     H    0.74502   0.38233   0.62301   1.000
    H12     H    0.80179   0.33476   0.01236   1.000
    H13     H    0.86778   0.37715   0.88249   1.000
    H14     H    0.64879   0.16566   0.48810   1.000
    H15     H    0.62723   0.12325   0.61798   1.000
    H16     H    0.63697   0.66558   0.51201   1.000
    H17     H    0.74508   0.62327   0.38215   1.000
    H18     H    0.31403   0.83462   0.98774   1.000
    H19     H    0.25043   0.87692   0.11760   1.000
    H20     H    0.64861   0.48810   0.16565   1.000
    H21     H    0.62725   0.61798   0.12320   1.000
    H22     H    0.80200   0.01235   0.33475   1.000
    H23     H    0.86779   0.88250   0.37715   1.000
    H24     H    0.68590   0.01202   0.16560   1.000
    H25     H    0.74946   0.88218   0.12329   1.000
    H26     H    0.36305   0.48780   0.33460   1.000
    H27     H    0.25500   0.61764   0.37698   1.000
    H28     H    0.19817   0.66526   0.98760   1.000
    H29     H    0.13220   0.62286   0.11751   1.000
    H30     H    0.35117   0.83432   0.51198   1.000
    H31     H    0.37273   0.87671   0.38209   1.000
    H32     H    0.17100   0.48335   0.48369   1.000
    H33     H    0.17428   0.56104   0.56132   1.000
    H34     H    0.63811   0.01632   0.01665   1.000
    H35     H    0.79629   0.93871   0.93890   1.000
    H36     H    0.15490   0.51610   0.98327   1.000
    H37     H    0.23549   0.43850   0.06104   1.000
    H38     H    0.15486   0.98320   0.51617   1.000
    H39     H    0.23558   0.06097   0.43853   1.000
    H40     H    0.36186   0.98368   0.98335   1.000
    H41     H    0.20367   0.06128   0.06107   1.000
    H42     H    0.82901   0.51663   0.51631   1.000
    H43     H    0.82575   0.43893   0.43867   1.000
    H44     H    0.84508   0.48392   0.01673   1.000
    H45     H    0.76450   0.56151   0.93895   1.000
    H46     H    0.84510   0.01677   0.48389   1.000
    H47     H    0.76439   0.93899   0.56151   1.000
    C48     C    0.31427   0.40084   0.54257   1.000
    C49     C    0.75785   0.09895   0.95764   1.000
    C50     C    0.35695   0.45734   0.90084   1.000
    C51     C    0.21553   0.04226   0.59883   1.000
    C52     C    0.24213   0.04257   0.90087   1.000
    C53     C    0.68571   0.45760   0.59890   1.000
    C54     C    0.78435   0.40122   0.95772   1.000
    C55     C    0.64308   0.09916   0.54269   1.000
    C56     C    0.68574   0.59913   0.45743   1.000
    C57     C    0.24212   0.90104   0.04230   1.000
    C58     C    0.64304   0.54269   0.09915   1.000
    C59     C    0.78443   0.95773   0.40121   1.000
    C60     C    0.75783   0.95744   0.09914   1.000
    C61     C    0.31430   0.54237   0.40100   1.000
    C62     C    0.21563   0.59880   0.04228   1.000
    C63     C    0.35687   0.90082   0.45738   1.000
    C64     C    0.23444   0.49989   0.50015   1.000
    C65     C    0.73447   0.99985   0.00010   1.000
    C66     C    0.23470   0.49969   0.99985   1.000
    C67     C    0.23468   0.99982   0.49973   1.000
    C68     C    0.26549   0.00000   0.99991   1.000
    C69     C    0.76558   0.50008   0.49984   1.000
    C70     C    0.76528   0.50033   0.00014   1.000
    C71     C    0.76528   0.00016   0.50032   1.000
loop_
    _geom_bond_atom_site_label_1
    _geom_bond_atom_site_label_2
    _geom_bond_distance
    _geom_bond_site_symmetry_2
    _ccdc_geom_bond_type
    C65    H34       1.09718  1_565   S
    C65    C60       1.53183      .   S
    C65    H35       1.10131  1_554   S
    C65    C49       1.53184  1_564   S
    C70    H44       1.09720      .   S
    C70    C58       1.53183      .   S
    C70    H45       1.10114  1_554   S
    C70    C54       1.53186  1_554   S
    H2     C49       1.10530  1_554   S
    H12    C54       1.10546  1_554   S
    C62    H29       1.10061      .   S
    C62    H28       1.10590  1_554   S
    C62    C66       1.53191  1_554   S
    C57    H19       1.10148      .   S
    C57    H18       1.10496  1_554   S
    C57    C68       1.52975  1_564   S
    H37    C66       1.10119  1_554   S
    H41    C68       1.10221  1_554   S
    C60    H25       1.10066      .   S
    C60    H24       1.10540  1_565   S
    C58    H21       1.10046      .   S
    C58    H20       1.10540      .   S
    H26    C61       1.10481      .   S
    H22    C59       1.10527  1_545   S
    H27    C61       1.10033      .   S
    H23    C59       1.10067      .   S
    H31    C63       1.10076      .   S
    H17    C56       1.10068      .   S
    C61    C64       1.53228      .   S
    C59    C71       1.53175  1_565   S
    H39    C67       1.10095  1_545   S
    H43    C69       1.10109      .   S
    C63    C67       1.53186      .   S
    C63    H30       1.10544      .   S
    C56    C69       1.53187      .   S
    C56    H16       1.10539      .   S
    H32    C64       1.09719      .   S
    H46    C71       1.09721      .   S
    H0     C48       1.10545      .   S
    H14    C55       1.10544      .   S
    C67    H38       1.09718      .   S
    C67    C51       1.53174  1_565   S
    C69    H42       1.09722      .   S
    C69    C53       1.53161      .   S
    C64    C48       1.53192      .   S
    C64    H33       1.10112      .   S
    C71    C55       1.53184      .   S
    C71    H47       1.10099  1_545   S
    C48    H1        1.10063      .   S
    C55    H15       1.10070      .   S
    C51    H7        1.10068      .   S
    C51    H6        1.10532  1_545   S
    C53    H11       1.10088      .   S
    C53    H10       1.10157      .   S
    H4     C50       1.10546      .   S
    H8     C52       1.10532  1_565   S
    H9     C52       1.10070      .   S
    H5     C50       1.10069      .   S
    H3     C49       1.10068      .   S
    H13    C54       1.10066      .   S
    C50    C66       1.53182      .   S
    C52    C68       1.53211      .   S
    H36    C66       1.09715      .   S
    H40    C68       1.09774  1_565   S
