# CIF file generated by openbabel 2.4.90, see http://openbabel.sf.net
data_I
_chemical_name_common ''
_cell_length_a 13.219
_cell_length_b 14.33
_cell_length_c 14.337
_cell_angle_alpha 77.767
_cell_angle_beta 62.589
_cell_angle_gamma 62.647
_space_group_name_H-M_alt 'P 1'
_space_group_name_Hall 'P 1'
loop_
    _symmetry_equiv_pos_as_xyz
    x,y,z
loop_
    _atom_site_label
    _atom_site_type_symbol
    _atom_site_fract_x
    _atom_site_fract_y
    _atom_site_fract_z
    _atom_site_occupancy
    Lv0     Lv   0.25017   0.97814   0.52143   1.000
    Lv1     Lv   0.27159   0.47823   0.47846   1.000
    Lv2     Lv   0.74979   0.02184   0.47862   1.000
    Lv3     Lv   0.72843   0.52175   0.52148   1.000
    Lv4     Lv   0.74974   0.47863   0.02182   1.000
    Lv5     Lv   0.72838   0.02154   0.02177   1.000
    Lv6     Lv   0.25024   0.52139   0.97816   1.000
    Lv7     Lv   0.27159   0.97844   0.97822   1.000
