# CIF file generated by openbabel 2.4.90, see http://openbabel.sf.net
data_I
_chemical_name_common ''
_cell_length_a 13.219
_cell_length_b 14.33
_cell_length_c 14.337
_cell_angle_alpha 77.767
_cell_angle_beta 62.589
_cell_angle_gamma 62.647
_space_group_name_H-M_alt 'P 1'
_space_group_name_Hall 'P 1'
loop_
    _symmetry_equiv_pos_as_xyz
    x,y,z
loop_
    _atom_site_label
    _atom_site_type_symbol
    _atom_site_fract_x
    _atom_site_fract_y
    _atom_site_fract_z
    _atom_site_occupancy
    Cu0     Cu   0.85701   0.25001   0.78555   1.000
    Cu1     Cu   0.60697   0.28551   0.75000   1.000
    Cu2     Cu   0.14297   0.21461   0.74996   1.000
    Cu3     Cu   0.60708   0.75019   0.28530   1.000
    Cu4     Cu   0.14295   0.75003   0.21445   1.000
    Cu5     Cu   0.39306   0.71449   0.24987   1.000
    Cu6     Cu   0.85697   0.78541   0.25010   1.000
    Cu7     Cu   0.39293   0.24978   0.71464   1.000
