# CIF file generated by openbabel 2.4.90, see http://openbabel.sf.net
data_I
_chemical_name_common ''
_cell_length_a 13.219
_cell_length_b 14.33
_cell_length_c 14.337
_cell_angle_alpha 77.767
_cell_angle_beta 62.589
_cell_angle_gamma 62.647
_space_group_name_H-M_alt 'P 1'
_space_group_name_Hall 'P 1'
loop_
    _symmetry_equiv_pos_as_xyz
    x,y,z
loop_
    _atom_site_label
    _atom_site_type_symbol
    _atom_site_fract_x
    _atom_site_fract_y
    _atom_site_fract_z
    _atom_site_occupancy
    Zr0     Zr   0.39293   0.24978   0.71464   1.000
    Zr1     Zr   0.85701   0.25001   0.78555   1.000
    Zr2     Zr   0.60697   0.28551   0.75000   1.000
    Zr3     Zr   0.14297   0.21461   0.74996   1.000
    Zr4     Zr   0.60708   0.75019   0.28530   1.000
    Zr5     Zr   0.14295   0.75003   0.21445   1.000
    Zr6     Zr   0.39306   0.71449   0.24987   1.000
    Zr7     Zr   0.85697   0.78541   0.25010   1.000
    Zr8     Zr   0.49986   0.15197   0.84807   1.000
    Zr9     Zr   0.00007   0.34761   0.65243   1.000
    Zr10    Zr   0.84725   0.15232   0.65234   1.000
    Zr11    Zr   0.15257   0.34779   0.84783   1.000
    Zr12    Zr   0.50010   0.84803   0.15196   1.000
    Zr13    Zr   0.99991   0.65240   0.34760   1.000
    Zr14    Zr   0.15272   0.84769   0.34766   1.000
    Zr15    Zr   0.84738   0.65222   0.15219   1.000
    O16     O    0.55359   0.79911   0.21863   1.000
    O17     O    0.85218   0.71881   0.20114   1.000
    O18     O    0.14784   0.79886   0.28105   1.000
    O19     O    0.92844   0.71890   0.29885   1.000
    O20     O    0.85213   0.20116   0.71894   1.000
    O21     O    0.07152   0.28111   0.70119   1.000
    O22     O    0.44640   0.20087   0.78135   1.000
    O23     O    0.14777   0.28120   0.79889   1.000
    C24     C    0.49998   1.00000   0.50002   1.000
    O25     O    0.45279   0.09751   0.58544   1.000
    O26     O    0.54718   0.90247   0.41457   1.000
    O27     O    0.63558   0.91463   0.40244   1.000
    O28     O    0.36438   0.08537   0.59759   1.000
    C29     C    0.50000   0.49999   0.49996   1.000
    O30     O    0.53803   0.41463   0.59756   1.000
    O31     O    0.46198   0.58536   0.40236   1.000
    O32     O    0.46192   0.40234   0.58541   1.000
    O33     O    0.53808   0.59764   0.41455   1.000
    C34     C    0.49999   0.50001   0.00000   1.000
    O35     O    0.54716   0.41461   0.90243   1.000
    O36     O    0.45283   0.58539   0.09754   1.000
    O37     O    0.36439   0.59761   0.08533   1.000
    O38     O    0.63559   0.40241   0.91468   1.000
    C39     C    0.99998   0.00000   0.00000   1.000
    O40     O    0.05036   0.90241   0.08536   1.000
    O41     O    0.94958   0.91459   0.09764   1.000
    O42     O    0.05038   0.08541   0.90238   1.000
    O43     O    0.94961   0.09760   0.91464   1.000
loop_
    _geom_bond_atom_site_label_1
    _geom_bond_atom_site_label_2
    _geom_bond_distance
    _geom_bond_site_symmetry_2
    _ccdc_geom_bond_type
    Zr12   O16       1.33710      .   S
    Zr4    O16       1.33710      .   S
    Zr15   O17       1.33701      .   S
    Zr7    O17       1.33701      .   S
    Zr5    O18       1.33681      .   S
    Zr14   O18       1.33681      .   S
    Zr7    O19       1.33702      .   S
    Zr13   O19       1.33702      .   S
    Zr10   O20       1.33701      .   S
    Zr1    O20       1.33701      .   S
    Zr9    O21       1.33700      .   S
    Zr3    O21       1.33700      .   S
    Zr0    O22       1.33742      .   S
    Zr8    O22       1.33742      .   S
    Zr3    O23       1.33684      .   S
    Zr11   O23       1.33684      .   S
    C24    O25       1.75004  1_565   S
    Zr0    O25       2.75588      .   S
    C24    O26       1.75029      .   S
    Zr4    O26       2.75665      .   S
    C24    O27       1.75148      .   S
    Zr7    O27       2.75919      .   S
    C24    O28       1.75159  1_565   S
    Zr3    O28       2.75944      .   S
    C29    O30       1.75043      .   S
    Zr2    O30       2.75709      .   S
    C29    O31       1.75063      .   S
    Zr6    O31       2.75750      .   S
    C29    O32       1.75080      .   S
    Zr0    O32       2.75751      .   S
    C29    O33       1.75063      .   S
    Zr4    O33       2.75743      .   S
    C34    O35       1.75050  1_554   S
    Zr2    O35       2.75716      .   S
    C34    O36       1.75013      .   S
    Zr6    O36       2.75612      .   S
    C34    O37       1.75160      .   S
    Zr5    O37       2.75953      .   S
    C34    O38       1.75151  1_554   S
    Zr1    O38       2.75934      .   S
    C39    O40       1.75105  1_645   S
    Zr5    O40       2.75832      .   S
    C39    O41       1.75097  1_545   S
    Zr7    O41       2.75818      .   S
    C39    O42       1.75087  1_654   S
    Zr3    O42       2.75797      .   S
    C39    O43       1.75117  1_554   S
    Zr1    O43       2.75856      .   S
