# CIF file generated by openbabel 2.4.90, see http://openbabel.sf.net
data_I
_chemical_name_common ''
_cell_length_a 13.219
_cell_length_b 14.33
_cell_length_c 14.337
_cell_angle_alpha 77.767
_cell_angle_beta 62.589
_cell_angle_gamma 62.647
_space_group_name_H-M_alt 'P 1'
_space_group_name_Hall 'P 1'
loop_
    _symmetry_equiv_pos_as_xyz
    x,y,z
loop_
    _atom_site_label
    _atom_site_type_symbol
    _atom_site_fract_x
    _atom_site_fract_y
    _atom_site_fract_z
    _atom_site_occupancy
    Zr0     Zr   0.39293   0.24978   0.71464   1.000
    Zr1     Zr   0.85701   0.25001   0.78555   1.000
    Zr2     Zr   0.60697   0.28551   0.75000   1.000
    Zr3     Zr   0.14297   0.21461   0.74996   1.000
    Zr4     Zr   0.60708   0.75019   0.28530   1.000
    Zr5     Zr   0.14295   0.75003   0.21445   1.000
    Zr6     Zr   0.39306   0.71449   0.24987   1.000
    Zr7     Zr   0.85697   0.78541   0.25010   1.000
    Zr8     Zr   0.49986   0.15197   0.84807   1.000
    Zr9     Zr   0.00007   0.34761   0.65243   1.000
    Zr10    Zr   0.84725   0.15232   0.65234   1.000
    Zr11    Zr   0.15257   0.34779   0.84783   1.000
    Zr12    Zr   0.50010   0.84803   0.15196   1.000
    Zr13    Zr   0.99991   0.65240   0.34760   1.000
    Zr14    Zr   0.15272   0.84769   0.34766   1.000
    Zr15    Zr   0.84738   0.65222   0.15219   1.000
    O16     O    0.55359   0.79911   0.21863   1.000
    O17     O    0.85218   0.71881   0.20114   1.000
    O18     O    0.14784   0.79886   0.28105   1.000
    O19     O    0.92844   0.71890   0.29885   1.000
    O20     O    0.85213   0.20116   0.71894   1.000
    O21     O    0.07152   0.28111   0.70119   1.000
    O22     O    0.44640   0.20087   0.78135   1.000
    O23     O    0.14777   0.28120   0.79889   1.000
    N24     N    0.25017   0.97814   0.52143   1.000
    N25     N    0.27159   0.47823   0.47846   1.000
    N26     N    0.74979   0.02184   0.47862   1.000
    N27     N    0.72843   0.52175   0.52148   1.000
    N28     N    0.74974   0.47863   0.02182   1.000
    N29     N    0.72838   0.02154   0.02177   1.000
    N30     N    0.25024   0.52139   0.97816   1.000
    N31     N    0.27159   0.97844   0.97822   1.000
    C32     C    0.49998   1.00000   0.50002   1.000
    O33     O    0.38049   0.00682   0.52805   1.000
    O34     O    0.45279   0.09751   0.58544   1.000
    O35     O    0.54718   0.90247   0.41457   1.000
    O36     O    0.61946   0.99317   0.47199   1.000
    O37     O    0.63558   0.91463   0.40244   1.000
    O38     O    0.36438   0.08537   0.59759   1.000
    O39     O    0.58445   0.02819   0.50704   1.000
    O40     O    0.41551   0.97179   0.49301   1.000
    C41     C    0.50000   0.49999   0.49996   1.000
    O42     O    0.40852   0.47181   0.50695   1.000
    O43     O    0.53803   0.41463   0.59756   1.000
    O44     O    0.46198   0.58536   0.40236   1.000
    O45     O    0.59149   0.52817   0.49300   1.000
    O46     O    0.40853   0.50686   0.47185   1.000
    O47     O    0.46192   0.40234   0.58541   1.000
    O48     O    0.59148   0.49311   0.52805   1.000
    O49     O    0.53808   0.59764   0.41455   1.000
    C50     C    0.49999   0.50001   0.00000   1.000
    O51     O    0.54716   0.41461   0.90243   1.000
    O52     O    0.45283   0.58539   0.09754   1.000
    O53     O    0.61944   0.47199   0.99316   1.000
    O54     O    0.58444   0.50703   0.02819   1.000
    O55     O    0.36439   0.59761   0.08533   1.000
    O56     O    0.38054   0.52803   0.00683   1.000
    O57     O    0.41554   0.49299   0.97180   1.000
    O58     O    0.63559   0.40241   0.91468   1.000
    C59     C    0.99998   0.00000   0.00000   1.000
    O60     O    0.11262   0.97190   0.00686   1.000
    O61     O    0.11262   0.00697   0.97182   1.000
    O62     O    0.05036   0.90241   0.08536   1.000
    O63     O    0.94958   0.91459   0.09764   1.000
    O64     O    0.05038   0.08541   0.90238   1.000
    O65     O    0.88735   0.99303   0.02818   1.000
    O66     O    0.88735   0.02809   0.99313   1.000
    O67     O    0.94961   0.09760   0.91464   1.000
loop_
    _geom_bond_atom_site_label_1
    _geom_bond_atom_site_label_2
    _geom_bond_distance
    _geom_bond_site_symmetry_2
    _ccdc_geom_bond_type
    Zr12   O16       1.33710      .   S
    Zr4    O16       1.33710      .   S
    Zr15   O17       1.33701      .   S
    Zr7    O17       1.33701      .   S
    Zr5    O18       1.33681      .   S
    Zr14   O18       1.33681      .   S
    Zr7    O19       1.33702      .   S
    Zr13   O19       1.33702      .   S
    Zr10   O20       1.33701      .   S
    Zr1    O20       1.33701      .   S
    Zr9    O21       1.33700      .   S
    Zr3    O21       1.33700      .   S
    Zr0    O22       1.33742      .   S
    Zr8    O22       1.33742      .   S
    Zr3    O23       1.33684      .   S
    Zr11   O23       1.33684      .   S
    C32    O33       1.39857  1_565   S
    N24    O33       1.99088  1_565   S
    C32    O34       1.75004  1_565   S
    Zr0    O34       2.75588      .   S
    C32    O35       1.75029      .   S
    Zr4    O35       2.75665      .   S
    C32    O36       1.39858      .   S
    N26    O36       1.99091  1_545   S
    C32    O37       1.75148      .   S
    Zr7    O37       2.75919      .   S
    C32    O38       1.75159  1_565   S
    Zr3    O38       2.75944      .   S
    C32    O39       1.39848  1_565   S
    N26    O39       1.99099      .   S
    C32    O40       1.39844      .   S
    N24    O40       1.99099      .   S
    C41    O42       1.39844      .   S
    N25    O42       1.99088      .   S
    C41    O43       1.75043      .   S
    Zr2    O43       2.75709      .   S
    C41    O44       1.75063      .   S
    Zr6    O44       2.75750      .   S
    C41    O45       1.39858      .   S
    N27    O45       1.99085      .   S
    C41    O46       1.39881      .   S
    N25    O46       1.99063      .   S
    C41    O47       1.75080      .   S
    Zr0    O47       2.75751      .   S
    C41    O48       1.39860      .   S
    N27    O48       1.99090      .   S
    C41    O49       1.75063      .   S
    Zr4    O49       2.75743      .   S
    C50    O51       1.75050  1_554   S
    Zr2    O51       2.75716      .   S
    C50    O52       1.75013      .   S
    Zr6    O52       2.75612      .   S
    C50    O53       1.39848  1_554   S
    N28    O53       1.99084  1_554   S
    C50    O54       1.39845      .   S
    N28    O54       1.99087      .   S
    C50    O55       1.75160      .   S
    Zr5    O55       2.75953      .   S
    C50    O56       1.39849      .   S
    N30    O56       1.99091  1_556   S
    C50    O57       1.39847  1_554   S
    N30    O57       1.99092      .   S
    C50    O58       1.75151  1_554   S
    Zr1    O58       2.75934      .   S
    C59    O60       1.39850  1_645   S
    N31    O60       1.99079  1_556   S
    C59    O61       1.39845  1_654   S
    N31    O61       1.99087  1_565   S
    C59    O62       1.75105  1_645   S
    Zr5    O62       2.75832      .   S
    C59    O63       1.75097  1_545   S
    Zr7    O63       2.75818      .   S
    C59    O64       1.75087  1_654   S
    Zr3    O64       2.75797      .   S
    C59    O65       1.39850  1_545   S
    N29    O65       1.99102  1_545   S
    C59    O66       1.39859  1_554   S
    N29    O66       1.99092  1_554   S
    C59    O67       1.75117  1_554   S
    Zr1    O67       2.75856      .   S
