# CIF file generated by openbabel 2.4.90, see http://openbabel.sf.net
data_I
_chemical_name_common ''
_cell_length_a 13.219
_cell_length_b 14.33
_cell_length_c 14.337
_cell_angle_alpha 77.767
_cell_angle_beta 62.589
_cell_angle_gamma 62.647
_space_group_name_H-M_alt 'P 1'
_space_group_name_Hall 'P 1'
loop_
    _symmetry_equiv_pos_as_xyz
    x,y,z
loop_
    _atom_site_label
    _atom_site_type_symbol
    _atom_site_fract_x
    _atom_site_fract_y
    _atom_site_fract_z
    _atom_site_occupancy
    Zr0     Zr   0.39293   0.24978   0.71464   1.000
    Zr1     Zr   0.85701   0.25001   0.78555   1.000
    Zr2     Zr   0.60697   0.28551   0.75000   1.000
    Zr3     Zr   0.14297   0.21461   0.74996   1.000
    Zr4     Zr   0.60708   0.75019   0.28530   1.000
    Zr5     Zr   0.14295   0.75003   0.21445   1.000
    Zr6     Zr   0.39306   0.71449   0.24987   1.000
    Zr7     Zr   0.85697   0.78541   0.25010   1.000
    Zr8     Zr   0.41072   0.41720   0.55624   1.000
    Zr9     Zr   0.88425   0.08269   0.94386   1.000
    Zr10    Zr   0.46697   0.44373   0.91723   1.000
    Zr11    Zr   0.32817   0.05606   0.58265   1.000
    Zr12    Zr   0.11571   0.05627   0.91724   1.000
    Zr13    Zr   0.58925   0.44385   0.58269   1.000
    Zr14    Zr   0.67176   0.41740   0.94392   1.000
    Zr15    Zr   0.53304   0.08274   0.55631   1.000
    Zr16    Zr   0.58931   0.58276   0.44375   1.000
    Zr17    Zr   0.11572   0.91731   0.05615   1.000
    Zr18    Zr   0.53302   0.55629   0.08275   1.000
    Zr19    Zr   0.67179   0.94393   0.41740   1.000
    Zr20    Zr   0.88425   0.94374   0.08277   1.000
    Zr21    Zr   0.41078   0.55612   0.41700   1.000
    Zr22    Zr   0.32822   0.58263   0.05607   1.000
    Zr23    Zr   0.46693   0.91723   0.44375   1.000
    Zr24    Zr   0.45420   0.49338   0.49344   1.000
    Zr25    Zr   0.94106   0.00652   0.00658   1.000
    Zr26    Zr   0.44766   0.50653   0.99340   1.000
    Zr27    Zr   0.44764   0.99339   0.50650   1.000
    Zr28    Zr   0.05889   0.99350   0.99345   1.000
    Zr29    Zr   0.54585   0.50656   0.50652   1.000
    Zr30    Zr   0.55232   0.49351   0.00657   1.000
    Zr31    Zr   0.55231   0.00657   0.49352   1.000
    Zr32    Zr   0.49986   0.15197   0.84807   1.000
    Zr33    Zr   0.00007   0.34761   0.65243   1.000
    Zr34    Zr   0.84725   0.15232   0.65234   1.000
    Zr35    Zr   0.15257   0.34779   0.84783   1.000
    Zr36    Zr   0.50010   0.84803   0.15196   1.000
    Zr37    Zr   0.99991   0.65240   0.34760   1.000
    Zr38    Zr   0.15272   0.84769   0.34766   1.000
    Zr39    Zr   0.84738   0.65222   0.15219   1.000
    Zr40    Zr   0.45473   0.35961   0.62707   1.000
    Zr41    Zr   0.94144   0.14041   0.87301   1.000
    Zr42    Zr   0.58170   0.37293   0.85971   1.000
    Zr43    Zr   0.31458   0.12689   0.64037   1.000
    Zr44    Zr   0.05858   0.12703   0.85956   1.000
    Zr45    Zr   0.54514   0.37301   0.64030   1.000
    Zr46    Zr   0.68535   0.35960   0.87317   1.000
    Zr47    Zr   0.41828   0.14028   0.62709   1.000
    Zr48    Zr   0.54522   0.64041   0.37297   1.000
    Zr49    Zr   0.05853   0.85959   0.12698   1.000
    Zr50    Zr   0.41828   0.62706   0.14031   1.000
    Zr51    Zr   0.68537   0.87314   0.35964   1.000
    Zr52    Zr   0.94140   0.87295   0.14044   1.000
    Zr53    Zr   0.45484   0.62699   0.35963   1.000
    Zr54    Zr   0.31462   0.64039   0.12687   1.000
    Zr55    Zr   0.58168   0.85972   0.37294   1.000
    O56     O    0.54267   0.52490   0.04466   1.000
    O57     O    0.61204   0.45545   0.97524   1.000
    O58     O    0.49999   0.50002   0.99998   1.000
    O59     O    0.91265   0.97513   0.04467   1.000
    O60     O    0.91266   0.04461   0.97522   1.000
    O61     O    0.99997   0.00001   0.00001   1.000
    O62     O    0.32142   0.61151   0.09147   1.000
    O63     O    0.38794   0.54458   0.02473   1.000
    O64     O    0.08712   0.88845   0.09156   1.000
    O65     O    0.08730   0.95541   0.02480   1.000
    O66     O    0.47565   0.59168   0.11153   1.000
    O67     O    0.91282   0.90834   0.11160   1.000
    O68     O    0.36645   0.63372   0.13359   1.000
    O69     O    0.22879   0.69521   0.17066   1.000
    O70     O    0.99997   0.86627   0.13371   1.000
    O71     O    0.10074   0.80481   0.17071   1.000
    O72     O    0.40567   0.67077   0.19509   1.000
    O73     O    0.89919   0.82918   0.19527   1.000
    O74     O    0.55359   0.79911   0.21863   1.000
    O75     O    0.85218   0.71881   0.20114   1.000
    O76     O    0.14784   0.79886   0.28105   1.000
    O77     O    0.42395   0.67074   0.30475   1.000
    O78     O    0.92844   0.71890   0.29885   1.000
    O79     O    0.77117   0.82927   0.30487   1.000
    O80     O    0.59438   0.80495   0.32912   1.000
    O81     O    0.57615   0.69530   0.32913   1.000
    O82     O    0.50003   0.63370   0.36630   1.000
    O83     O    0.43281   0.59155   0.38831   1.000
    O84     O    0.63352   0.86643   0.36629   1.000
    O85     O    0.67858   0.90854   0.38852   1.000
    O86     O    0.52430   0.88848   0.40834   1.000
    O87     O    0.56726   0.61158   0.40836   1.000
    O88     O    0.43249   0.52475   0.45522   1.000
    O89     O    0.61205   0.97525   0.45546   1.000
    O90     O    0.45729   0.95531   0.47512   1.000
    O91     O    0.56758   0.54466   0.47513   1.000
    O92     O    0.50002   0.49997   0.49998   1.000
    O93     O    0.43246   0.45529   0.52484   1.000
    O94     O    0.49998   0.99998   0.50001   1.000
    O95     O    0.54268   0.04465   0.52491   1.000
    O96     O    0.38791   0.02473   0.54457   1.000
    O97     O    0.56755   0.47520   0.54460   1.000
    O98     O    0.43273   0.38840   0.59165   1.000
    O99     O    0.47566   0.11151   0.59170   1.000
    O100    O    0.32137   0.09147   0.61151   1.000
    O101    O    0.56719   0.40843   0.61149   1.000
    O102    O    0.49994   0.36631   0.63368   1.000
    O103    O    0.42383   0.30469   0.67085   1.000
    O104    O    0.36643   0.13358   0.63373   1.000
    O105    O    0.40561   0.19503   0.67087   1.000
    O106    O    0.57605   0.32926   0.69515   1.000
    O107    O    0.22878   0.17075   0.69516   1.000
    O108    O    0.85213   0.20116   0.71894   1.000
    O109    O    0.07152   0.28111   0.70119   1.000
    O110    O    0.44640   0.20087   0.78135   1.000
    O111    O    0.14777   0.28120   0.79889   1.000
    O112    O    0.10077   0.17082   0.80476   1.000
    O113    O    0.59434   0.32922   0.80485   1.000
    O114    O    0.89923   0.19521   0.82928   1.000
    O115    O    0.77118   0.30480   0.82936   1.000
    O116    O    0.00001   0.13372   0.86628   1.000
    O117    O    0.08715   0.09165   0.88840   1.000
    O118    O    0.63353   0.36626   0.86644   1.000
    O119    O    0.52433   0.40833   0.88847   1.000
    O120    O    0.91284   0.11155   0.90843   1.000
    O121    O    0.67855   0.38850   0.90854   1.000
    O122    O    0.45731   0.47513   0.95531   1.000
    O123    O    0.08730   0.02489   0.95534   1.000
    N124    N    0.25017   0.97814   0.52143   1.000
    O125    O    0.33103   0.94358   0.48600   1.000
    O126    O    0.26101   0.01365   0.55609   1.000
    N127    N    0.27159   0.47823   0.47846   1.000
    O128    O    0.31704   0.44362   0.51393   1.000
    O129    O    0.31706   0.51374   0.44373   1.000
    N130    N    0.74979   0.02184   0.47862   1.000
    O131    O    0.66893   0.05639   0.51406   1.000
    O132    O    0.73895   0.98634   0.44396   1.000
    N133    N    0.72843   0.52175   0.52148   1.000
    O134    O    0.68295   0.48623   0.55614   1.000
    O135    O    0.68297   0.55634   0.48603   1.000
    N136    N    0.74974   0.47863   0.02182   1.000
    O137    O    0.73890   0.44397   0.98632   1.000
    O138    O    0.66889   0.51406   0.05639   1.000
    N139    N    0.72838   0.02154   0.02177   1.000
    O140    O    0.77472   0.05618   0.98626   1.000
    O141    O    0.77471   0.98607   0.05636   1.000
    N142    N    0.25024   0.52139   0.97816   1.000
    O143    O    0.33110   0.48596   0.94360   1.000
    O144    O    0.26108   0.55605   0.01367   1.000
    N145    N    0.27159   0.97844   0.97822   1.000
    O146    O    0.22525   0.94381   0.01372   1.000
    O147    O    0.22525   0.01393   0.94364   1.000
loop_
    _geom_bond_atom_site_label_1
    _geom_bond_atom_site_label_2
    _geom_bond_distance
    _geom_bond_site_symmetry_2
    _ccdc_geom_bond_type
    Zr30   O56       0.70999      .   S
    Zr18   O56       0.70999      .   S
    Zr30   O57       0.70995  1_554   S
    Zr14   O57       0.70995      .   S
    Zr30   O58       0.70231  1_554   S
    Zr26   O58       0.70231      .   S
    Zr25   O59       0.70989  1_545   S
    Zr20   O59       0.70989      .   S
    Zr25   O60       0.71005  1_554   S
    Zr9    O60       0.71005      .   S
    Zr25   O61       0.70251      .   S
    Zr28   O61       0.70251  1_466   S
    Zr22   O62       0.67062      .   S
    Zr54   O62       0.67062      .   S
    Zr22   O63       0.70995      .   S
    Zr26   O63       0.70995  1_556   S
    Zr17   O64       0.67058      .   S
    Zr49   O64       0.67058      .   S
    Zr17   O65       0.71003      .   S
    Zr28   O65       0.71003  1_556   S
    Zr18   O66       0.67056      .   S
    Zr50   O66       0.67056      .   S
    Zr20   O67       0.67063      .   S
    Zr52   O67       0.67063      .   S
    Zr54   O68       0.69609      .   S
    Zr50   O68       0.69609      .   S
    Zr54   O69       1.01624      .   S
    Zr5    O69       1.01624      .   S
    Zr49   O70       0.69632  1_455   S
    Zr52   O70       0.69632      .   S
    Zr49   O71       1.01574      .   S
    Zr5    O71       1.01574      .   S
    Zr50   O72       1.01441      .   S
    Zr6    O72       1.01441      .   S
    Zr52   O73       1.01567      .   S
    Zr7    O73       1.01567      .   S
    Zr36   O74       1.33710      .   S
    Zr4    O74       1.33710      .   S
    Zr39   O75       1.33701      .   S
    Zr7    O75       1.33701      .   S
    Zr5    O76       1.33681      .   S
    Zr38   O76       1.33681      .   S
    Zr6    O77       1.01511      .   S
    Zr53   O77       1.01511      .   S
    Zr7    O78       1.33702      .   S
    Zr37   O78       1.33702      .   S
    Zr7    O79       1.01594      .   S
    Zr51   O79       1.01594      .   S
    Zr4    O80       1.01470      .   S
    Zr55   O80       1.01470      .   S
    Zr4    O81       1.01499      .   S
    Zr48   O81       1.01499      .   S
    Zr53   O82       0.69605      .   S
    Zr48   O82       0.69605      .   S
    Zr53   O83       0.67003      .   S
    Zr21   O83       0.67003      .   S
    Zr51   O84       0.69609      .   S
    Zr55   O84       0.69609      .   S
    Zr51   O85       0.67059      .   S
    Zr19   O85       0.67059      .   S
    Zr55   O86       0.67058      .   S
    Zr23   O86       0.67058      .   S
    Zr48   O87       0.67058      .   S
    Zr16   O87       0.67058      .   S
    Zr21   O88       0.71171      .   S
    Zr24   O88       0.71171      .   S
    Zr19   O89       0.71001      .   S
    Zr31   O89       0.71001  1_545   S
    Zr23   O90       0.70969      .   S
    Zr27   O90       0.70969      .   S
    Zr16   O91       0.70999      .   S
    Zr29   O91       0.70999      .   S
    Zr24   O92       0.70229      .   S
    Zr29   O92       0.70229      .   S
    Zr24   O93       0.71000      .   S
    Zr8    O93       0.71000      .   S
    Zr31   O94       0.70229  1_545   S
    Zr27   O94       0.70229      .   S
    Zr31   O95       0.70999      .   S
    Zr15   O95       0.70999      .   S
    Zr27   O96       0.71016  1_565   S
    Zr11   O96       0.71016      .   S
    Zr29   O97       0.71000      .   S
    Zr13   O97       0.71000      .   S
    Zr8    O98       0.67053      .   S
    Zr40   O98       0.67053      .   S
    Zr15   O99       0.67055      .   S
    Zr47   O99       0.67055      .   S
    Zr11   O100      0.67058      .   S
    Zr43   O100      0.67058      .   S
    Zr13   O101      0.67040      .   S
    Zr45   O101      0.67040      .   S
    Zr40   O102      0.69572      .   S
    Zr45   O102      0.69572      .   S
    Zr40   O103      1.01495      .   S
    Zr0    O103      1.01495      .   S
    Zr47   O104      0.69609      .   S
    Zr43   O104      0.69609      .   S
    Zr47   O105      1.01418      .   S
    Zr0    O105      1.01418      .   S
    Zr45   O106      1.01491      .   S
    Zr2    O106      1.01491      .   S
    Zr43   O107      1.01608      .   S
    Zr3    O107      1.01608      .   S
    Zr34   O108      1.33701      .   S
    Zr1    O108      1.33701      .   S
    Zr33   O109      1.33700      .   S
    Zr3    O109      1.33700      .   S
    Zr0    O110      1.33742      .   S
    Zr32   O110      1.33742      .   S
    Zr3    O111      1.33684      .   S
    Zr35   O111      1.33684      .   S
    Zr3    O112      1.01555      .   S
    Zr44   O112      1.01555      .   S
    Zr2    O113      1.01508      .   S
    Zr42   O113      1.01508      .   S
    Zr1    O114      1.01585      .   S
    Zr41   O114      1.01585      .   S
    Zr1    O115      1.01613      .   S
    Zr46   O115      1.01613      .   S
    Zr44   O116      0.69634      .   S
    Zr41   O116      0.69634  1_655   S
    Zr44   O117      0.67055      .   S
    Zr12   O117      0.67055      .   S
    Zr42   O118      0.69613      .   S
    Zr46   O118      0.69613      .   S
    Zr42   O119      0.67056      .   S
    Zr10   O119      0.67056      .   S
    Zr41   O120      0.67061      .   S
    Zr9    O120      0.67061      .   S
    Zr46   O121      0.67058      .   S
    Zr14   O121      0.67058      .   S
    Zr10   O122      0.71001      .   S
    Zr26   O122      0.71001      .   S
    Zr12   O123      0.70992      .   S
    Zr28   O123      0.70992  1_565   S
    N124   O125      0.87530      .   S
    Zr23   O125      1.48598      .   S
    N124   O126      0.87522  1_565   S
    Zr11   O126      1.48583      .   S
    N127   O128      0.87535      .   S
    Zr8    O128      1.48600      .   S
    N127   O129      0.87543      .   S
    Zr21   O129      1.48526      .   S
    N130   O131      0.87528      .   S
    Zr15   O131      1.48594      .   S
    N130   O132      0.87521  1_545   S
    Zr19   O132      1.48580      .   S
    N133   O134      0.87527      .   S
    Zr13   O134      1.48574      .   S
    N133   O135      0.87500      .   S
    Zr16   O135      1.48565      .   S
    N136   O137      0.87523  1_554   S
    Zr14   O137      1.48581      .   S
    N136   O138      0.87523      .   S
    Zr18   O138      1.48585      .   S
    N139   O140      0.87517  1_554   S
    Zr9    O140      1.48578      .   S
    N139   O141      0.87532  1_545   S
    Zr20   O141      1.48600      .   S
    N142   O143      0.87525      .   S
    Zr10   O143      1.48590      .   S
    N142   O144      0.87531  1_556   S
    Zr22   O144      1.48589      .   S
    N145   O146      0.87505  1_556   S
    Zr17   O146      1.48564      .   S
    N145   O147      0.87525  1_565   S
    Zr12   O147      1.48591      .   S
