# CIF file generated by openbabel 2.4.90, see http://openbabel.sf.net
data_I
_chemical_name_common ''
_cell_length_a 23.037
_cell_length_b 15.262
_cell_length_c 18.164
_cell_angle_alpha 89.982
_cell_angle_beta 90
_cell_angle_gamma 89.902
_space_group_name_H-M_alt 'P 1'
_space_group_name_Hall 'P 1'
loop_
    _symmetry_equiv_pos_as_xyz
    x,y,z
loop_
    _atom_site_label
    _atom_site_type_symbol
    _atom_site_fract_x
    _atom_site_fract_y
    _atom_site_fract_z
    _atom_site_occupancy
    Zn0     Zn   0.75002   0.55192   0.09709   1.000
    Zn1     Zn   0.25000   0.44805   0.90280   1.000
    Zn2     Zn   0.75001   0.44805   0.90280   1.000
    Zn3     Zn   0.25001   0.94801   0.59705   1.000
    Zn4     Zn   0.75001   0.94801   0.59705   1.000
    Zn5     Zn   0.25000   0.05196   0.40290   1.000
    Zn6     Zn   0.75001   0.05196   0.40290   1.000
    Zn7     Zn   0.25001   0.55192   0.09709   1.000
