# CIF file generated by openbabel 2.4.90, see http://openbabel.sf.net
data_I
_chemical_name_common ''
_cell_length_a 23.037
_cell_length_b 15.262
_cell_length_c 18.164
_cell_angle_alpha 89.982
_cell_angle_beta 90
_cell_angle_gamma 89.902
_space_group_name_H-M_alt 'P 1'
_space_group_name_Hall 'P 1'
loop_
    _symmetry_equiv_pos_as_xyz
    x,y,z
loop_
    _atom_site_label
    _atom_site_type_symbol
    _atom_site_fract_x
    _atom_site_fract_y
    _atom_site_fract_z
    _atom_site_occupancy
    N0      N    0.50001   0.55504   0.09499   1.000
    N1      N    0.50001   0.94486   0.59496   1.000
    N2      N    0.00001   0.94486   0.59495   1.000
    N3      N    0.25000   0.99999   0.99995   1.000
    N4      N    0.75002   0.99999   0.99995   1.000
    N5      N    0.00001   0.55504   0.09499   1.000
    N6      N    0.00000   0.05511   0.40497   1.000
    N7      N    0.00001   0.44493   0.90497   1.000
    N8      N    0.50000   0.05511   0.40497   1.000
    N9      N    0.50001   0.44493   0.90497   1.000
    N10     N    0.25000   0.49999   0.49998   1.000
    N11     N    0.75001   0.49999   0.49998   1.000
    Zr12    Zr   0.75001   0.05196   0.40290   1.000
    O13     O    0.75002   0.89718   0.42651   1.000
    O14     O    0.75001   0.04079   0.28856   1.000
    O15     O    0.75001   0.17496   0.43768   1.000
    O16     O    0.67561   0.05294   0.40400   1.000
    O17     O    0.82441   0.05294   0.40400   1.000
    Zr18    Zr   0.75002   0.55192   0.09709   1.000
    O19     O    0.75001   0.54077   0.21142   1.000
    O20     O    0.82441   0.55288   0.09599   1.000
    O21     O    0.75001   0.67493   0.06230   1.000
    O22     O    0.75002   0.39715   0.07346   1.000
    O23     O    0.67562   0.55289   0.09599   1.000
    Zr24    Zr   0.25000   0.44805   0.90280   1.000
    O25     O    0.25001   0.32504   0.93761   1.000
    O26     O    0.24999   0.60282   0.92645   1.000
    O27     O    0.17561   0.44709   0.90393   1.000
    O28     O    0.32440   0.44709   0.90393   1.000
    O29     O    0.25000   0.45920   0.78849   1.000
    Zr30    Zr   0.75001   0.44805   0.90280   1.000
    O31     O    0.75001   0.45920   0.78850   1.000
    O32     O    0.75000   0.60282   0.92645   1.000
    O33     O    0.75002   0.32504   0.93761   1.000
    O34     O    0.67561   0.44709   0.90393   1.000
    O35     O    0.82441   0.44709   0.90393   1.000
    Zr36    Zr   0.25001   0.94801   0.59705   1.000
    O37     O    0.17561   0.94704   0.59594   1.000
    O38     O    0.25001   0.95918   0.71139   1.000
    O39     O    0.25000   0.10279   0.57344   1.000
    O40     O    0.25001   0.82501   0.56227   1.000
    O41     O    0.32440   0.94703   0.59595   1.000
    Zr42    Zr   0.75001   0.94801   0.59705   1.000
    O43     O    0.82441   0.94703   0.59595   1.000
    O44     O    0.75001   0.10279   0.57344   1.000
    O45     O    0.75001   0.95918   0.71139   1.000
    O46     O    0.75002   0.82501   0.56227   1.000
    O47     O    0.67562   0.94704   0.59595   1.000
    Zr48    Zr   0.25001   0.55192   0.09709   1.000
    O49     O    0.25001   0.39715   0.07346   1.000
    O50     O    0.25000   0.67493   0.06230   1.000
    O51     O    0.25000   0.54077   0.21142   1.000
    O52     O    0.17561   0.55289   0.09599   1.000
    O53     O    0.32440   0.55288   0.09599   1.000
    Zr54    Zr   0.25000   0.05196   0.40290   1.000
    O55     O    0.25000   0.04079   0.28856   1.000
    O56     O    0.32440   0.05294   0.40400   1.000
    O57     O    0.25000   0.17496   0.43768   1.000
    O58     O    0.25001   0.89718   0.42651   1.000
    O59     O    0.17561   0.05294   0.40400   1.000
loop_
    _geom_bond_atom_site_label_1
    _geom_bond_atom_site_label_2
    _geom_bond_distance
    _geom_bond_site_symmetry_2
    _ccdc_geom_bond_type
    Zr12   O13       2.40079  1_545   S
    N11    O13       6.20668      .   S
    Zr12   O14       2.08399      .   S
    N4     O14       5.27923  1_566   S
    Zr12   O15       1.98089      .   S
    N11    O15       5.08826      .   S
    Zr12   O16       1.71410      .   S
    N8     O16       4.04562      .   S
    Zr12   O17       1.71404      .   S
    N6     O17       4.04546  1_455   S
    Zr18   O19       2.08358      .   S
    N11    O19       5.27798      .   S
    Zr18   O20       1.71403      .   S
    N5     O20       4.04543  1_455   S
    Zr18   O21       1.98073      .   S
    N4     O21       5.08826  1_556   S
    Zr18   O22       2.40093      .   S
    N4     O22       6.20718  1_566   S
    Zr18   O23       1.71411      .   S
    N0     O23       4.04564      .   S
    Zr24   O25       1.98082      .   S
    N3     O25       5.08826  1_565   S
    Zr24   O26       2.40098      .   S
    N3     O26       6.20720      .   S
    Zr24   O27       1.71404      .   S
    N7     O27       4.04544      .   S
    Zr24   O28       1.71411      .   S
    N9     O28       4.04564      .   S
    Zr24   O29       2.08316      .   S
    N10    O29       5.27729      .   S
    Zr30   O31       2.08314      .   S
    N11    O31       5.27731      .   S
    Zr30   O32       2.40098      .   S
    N4     O32       6.20720      .   S
    Zr30   O33       1.98081      .   S
    N4     O33       5.08826  1_565   S
    Zr30   O34       1.71409      .   S
    N9     O34       4.04560      .   S
    Zr30   O35       1.71406      .   S
    N7     O35       4.04548  1_455   S
    Zr36   O37       1.71404      .   S
    N2     O37       4.04546      .   S
    Zr36   O38       2.08384      .   S
    N3     O38       5.27861      .   S
    Zr36   O39       2.40078  1_565   S
    N10    O39       6.20669      .   S
    Zr36   O40       1.98087      .   S
    N10    O40       5.08826      .   S
    Zr36   O41       1.71410      .   S
    N1     O41       4.04562      .   S
    Zr42   O43       1.71405      .   S
    N2     O43       4.04546  1_455   S
    Zr42   O44       2.40078  1_565   S
    N11    O44       6.20669      .   S
    Zr42   O45       2.08384      .   S
    N4     O45       5.27861      .   S
    Zr42   O46       1.98087      .   S
    N11    O46       5.08826      .   S
    Zr42   O47       1.71409      .   S
    N1     O47       4.04562      .   S
    Zr48   O49       2.40093      .   S
    N3     O49       6.20718  1_566   S
    Zr48   O50       1.98073      .   S
    N3     O50       5.08826  1_556   S
    Zr48   O51       2.08357      .   S
    N10    O51       5.27798      .   S
    Zr48   O52       1.71405      .   S
    N5     O52       4.04547      .   S
    Zr48   O53       1.71409      .   S
    N0     O53       4.04561      .   S
    Zr54   O55       2.08399      .   S
    N3     O55       5.27923  1_566   S
    Zr54   O56       1.71409      .   S
    N8     O56       4.04561      .   S
    Zr54   O57       1.98088      .   S
    N10    O57       5.08826      .   S
    Zr54   O58       2.40079  1_545   S
    N10    O58       6.20668      .   S
    Zr54   O59       1.71405      .   S
    N6     O59       4.04546      .   S
