# CIF file generated by openbabel 2.4.90, see http://openbabel.sf.net
data_I
_chemical_name_common 'ZnH17C18N5O4'
_cell_length_a 14.559
_cell_length_b 15.905
_cell_length_c 18.506
_cell_angle_alpha 89.983
_cell_angle_beta 86.855
_cell_angle_gamma 90.096
_space_group_name_H-M_alt 'P 1'
_space_group_name_Hall 'P 1'
loop_
    _symmetry_equiv_pos_as_xyz
    x,y,z
loop_
    _atom_site_label
    _atom_site_type_symbol
    _atom_site_fract_x
    _atom_site_fract_y
    _atom_site_fract_z
    _atom_site_occupancy
    Zn0     Zn   0.17954   0.15282   0.62511   1.000
    Zn1     Zn   0.17954   0.15282   0.12510   1.000
    Zn2     Zn   0.32032   0.65289   0.62478   1.000
    Zn3     Zn   0.32032   0.65289   0.12477   1.000
    Zn4     Zn   0.82043   0.84718   0.87488   1.000
    Zn5     Zn   0.82043   0.84718   0.37488   1.000
    Zn6     Zn   0.67965   0.34711   0.87522   1.000
    Zn7     Zn   0.67965   0.34711   0.37521   1.000
    H8      H    0.97361   0.21811   0.48883   1.000
    H9      H    0.97362   0.21811   0.00000   1.000
    H10     H    0.10142   0.02153   0.85918   1.000
    H11     H    0.10141   0.02152   0.35918   1.000
    H12     H    0.86325   0.15067   0.78636   1.000
    H13     H    0.86324   0.15066   0.28636   1.000
    H14     H    0.07452   0.34918   0.84198   1.000
    H15     H    0.07451   0.34918   0.34198   1.000
    H16     H    0.00000   0.26397   0.64054   1.000
    H17     H    0.00000   0.26397   0.14053   1.000
    H18     H    0.19481   0.22672   0.78623   1.000
    H19     H    0.19480   0.22671   0.28623   1.000
    H20     H    0.90650   0.38902   0.80331   1.000
    H21     H    0.90649   0.38902   0.30329   1.000
    H22     H    0.88033   0.36837   0.71388   1.000
    H23     H    0.88032   0.36836   0.21386   1.000
    H24     H    0.99897   0.47683   0.66951   1.000
    H25     H    0.99896   0.47682   0.16949   1.000
    H26     H    0.90334   0.51560   0.72289   1.000
    H27     H    0.90334   0.51560   0.22287   1.000
    H28     H    0.34562   0.86338   0.62557   1.000
    H29     H    0.34562   0.86338   0.12555   1.000
    H30     H    0.38578   0.85683   0.76341   1.000
    H31     H    0.38578   0.85682   0.26339   1.000
    H32     H    0.36517   0.94876   0.81627   1.000
    H33     H    0.36517   0.94875   0.31625   1.000
    H34     H    0.27698   0.07028   0.76206   1.000
    H35     H    0.27699   0.07028   0.26205   1.000
    H36     H    0.23178   0.97438   0.55462   1.000
    H37     H    0.23178   0.97439   0.05460   1.000
    H38     H    0.53383   0.91783   0.78468   1.000
    H39     H    0.53383   0.91783   0.28467   1.000
    H40     H    0.51451   0.93013   0.69280   1.000
    H41     H    0.51451   0.93013   0.19279   1.000
    H42     H    0.52593   0.71798   0.76091   1.000
    H43     H    0.52593   0.71797   0.26089   1.000
    H44     H    0.39790   0.52134   0.89098   1.000
    H45     H    0.39791   0.52133   0.39096   1.000
    H46     H    0.63633   0.65108   0.96343   1.000
    H47     H    0.63634   0.65107   0.46341   1.000
    H48     H    0.42598   0.84858   0.90716   1.000
    H49     H    0.42598   0.84858   0.40715   1.000
    H50     H    0.51430   0.76472   0.60911   1.000
    H51     H    0.51431   0.76472   0.10910   1.000
    H52     H    0.30536   0.72625   0.96339   1.000
    H53     H    0.30536   0.72625   0.46338   1.000
    H54     H    0.59307   0.88976   0.94554   1.000
    H55     H    0.59307   0.88976   0.44554   1.000
    H56     H    0.62044   0.86866   0.53462   1.000
    H57     H    0.62044   0.86866   0.03461   1.000
    H58     H    0.50248   0.97655   0.58037   1.000
    H59     H    0.50248   0.97655   0.08036   1.000
    H60     H    0.59712   0.01602   0.52612   1.000
    H61     H    0.59712   0.01602   0.02611   1.000
    H62     H    0.15518   0.36237   0.62331   1.000
    H63     H    0.15517   0.36238   0.12330   1.000
    H64     H    0.11356   0.35685   0.98597   1.000
    H65     H    0.11356   0.35685   0.48596   1.000
    H66     H    0.13430   0.44896   0.93324   1.000
    H67     H    0.13430   0.44896   0.43324   1.000
    H68     H    0.22190   0.57104   0.98798   1.000
    H69     H    0.22189   0.57104   0.48798   1.000
    H70     H    0.26860   0.47362   0.69465   1.000
    H71     H    0.26860   0.47362   0.19464   1.000
    H72     H    0.96570   0.41810   0.96501   1.000
    H73     H    0.96570   0.41810   0.46501   1.000
    H74     H    0.98530   0.42976   0.55691   1.000
    H75     H    0.98530   0.42976   0.05690   1.000
    H76     H    0.02635   0.78189   0.01116   1.000
    H77     H    0.02635   0.78189   0.51115   1.000
    H78     H    0.89856   0.97849   0.64080   1.000
    H79     H    0.89856   0.97848   0.14079   1.000
    H80     H    0.13673   0.84934   0.71362   1.000
    H81     H    0.13672   0.84934   0.21361   1.000
    H82     H    0.92547   0.65083   0.65800   1.000
    H83     H    0.92546   0.65083   0.15799   1.000
    H84     H    0.01427   0.73605   0.85946   1.000
    H85     H    0.01427   0.73604   0.35945   1.000
    H86     H    0.80517   0.77329   0.71375   1.000
    H87     H    0.80517   0.77330   0.21374   1.000
    H88     H    0.09349   0.61100   0.69669   1.000
    H89     H    0.09348   0.61099   0.19668   1.000
    H90     H    0.11965   0.63165   0.78612   1.000
    H91     H    0.11964   0.63165   0.28611   1.000
    H92     H    0.00101   0.52319   0.83049   1.000
    H93     H    0.00101   0.52319   0.33048   1.000
    H94     H    0.09664   0.48442   0.77711   1.000
    H95     H    0.09663   0.48442   0.27710   1.000
    H96     H    0.65437   0.13663   0.87443   1.000
    H97     H    0.65436   0.13662   0.37441   1.000
    H98     H    0.61418   0.14318   0.73660   1.000
    H99     H    0.61418   0.14318   0.23658   1.000
    H100    H    0.63478   0.05126   0.68373   1.000
    H101    H    0.63479   0.05125   0.18372   1.000
    H102    H    0.72296   0.92971   0.73794   1.000
    H103    H    0.72297   0.92971   0.23792   1.000
    H104    H    0.76820   0.02562   0.94538   1.000
    H105    H    0.76819   0.02562   0.44537   1.000
    H106    H    0.46612   0.08218   0.71532   1.000
    H107    H    0.46613   0.08217   0.21530   1.000
    H108    H    0.48545   0.06988   0.80720   1.000
    H109    H    0.48545   0.06987   0.30719   1.000
    H110    H    0.47404   0.28203   0.73909   1.000
    H111    H    0.47404   0.28203   0.23908   1.000
    H112    H    0.60206   0.47866   0.60902   1.000
    H113    H    0.60206   0.47866   0.10901   1.000
    H114    H    0.36363   0.34892   0.53657   1.000
    H115    H    0.36363   0.34892   0.03656   1.000
    H116    H    0.57400   0.15142   0.59284   1.000
    H117    H    0.57399   0.15142   0.09283   1.000
    H118    H    0.48566   0.23529   0.89089   1.000
    H119    H    0.48566   0.23528   0.39088   1.000
    H120    H    0.69461   0.27376   0.53661   1.000
    H121    H    0.69461   0.27376   0.03660   1.000
    H122    H    0.40691   0.11024   0.55446   1.000
    H123    H    0.40691   0.11024   0.05445   1.000
    H124    H    0.37954   0.13134   0.96538   1.000
    H125    H    0.37954   0.13134   0.46537   1.000
    H126    H    0.49750   0.02345   0.91963   1.000
    H127    H    0.49750   0.02345   0.41962   1.000
    H128    H    0.40286   0.98398   0.97388   1.000
    H129    H    0.40286   0.98398   0.47387   1.000
    H130    H    0.84479   0.63762   0.87668   1.000
    H131    H    0.84479   0.63762   0.37667   1.000
    H132    H    0.88639   0.64316   0.51402   1.000
    H133    H    0.88640   0.64315   0.01401   1.000
    H134    H    0.86566   0.55105   0.56675   1.000
    H135    H    0.86566   0.55105   0.06674   1.000
    H136    H    0.77806   0.42897   0.51201   1.000
    H137    H    0.77806   0.42897   0.01201   1.000
    H138    H    0.73137   0.52637   0.80534   1.000
    H139    H    0.73137   0.52637   0.30533   1.000
    H140    H    0.03426   0.58191   0.53498   1.000
    H141    H    0.03426   0.58191   0.03498   1.000
    H142    H    0.01466   0.57025   0.94309   1.000
    H143    H    0.01466   0.57024   0.44308   1.000
    C144    C    0.97703   0.18027   0.93988   1.000
    C145    C    0.97701   0.18026   0.43988   1.000
    C146    C    0.04672   0.12015   0.92918   1.000
    C147    C    0.04672   0.12014   0.42918   1.000
    C148    C    0.83734   0.25677   0.90273   1.000
    C149    C    0.83733   0.25676   0.40273   1.000
    C150    C    0.11851   0.11158   0.48470   1.000
    C151    C    0.11852   0.11159   0.00000   1.000
    C152    C    0.91138   0.19243   0.88873   1.000
    C153    C    0.91137   0.19242   0.38873   1.000
    C154    C    0.04856   0.06940   0.86748   1.000
    C155    C    0.04856   0.06939   0.36748   1.000
    C156    C    0.91423   0.14248   0.82662   1.000
    C157    C    0.91423   0.14247   0.32662   1.000
    C158    C    0.98117   0.07988   0.81644   1.000
    C159    C    0.98116   0.07987   0.31644   1.000
    C160    C    0.07561   0.31425   0.79188   1.000
    C161    C    0.07560   0.31424   0.29187   1.000
    C162    C    0.02734   0.27054   0.68702   1.000
    C163    C    0.02734   0.27054   0.18701   1.000
    C164    C    0.13305   0.25235   0.76485   1.000
    C165    C    0.13304   0.25234   0.26485   1.000
    C166    C    0.93580   0.38954   0.74736   1.000
    C167    C    0.93579   0.38953   0.24734   1.000
    C168    C    0.96698   0.47859   0.72486   1.000
    C169    C    0.96698   0.47859   0.22485   1.000
    C170    C    0.31625   0.92333   0.64178   1.000
    C171    C    0.31625   0.92333   0.14176   1.000
    C172    C    0.39108   0.92577   0.76294   1.000
    C173    C    0.39108   0.92577   0.26292   1.000
    C174    C    0.27836   0.02920   0.71547   1.000
    C175    C    0.27836   0.02919   0.21546   1.000
    C176    C    0.25856   0.97678   0.60811   1.000
    C177    C    0.25856   0.97678   0.10810   1.000
    C178    C    0.49158   0.95261   0.74716   1.000
    C179    C    0.49158   0.95260   0.24715   1.000
    C180    C    0.52252   0.68020   0.80992   1.000
    C181    C    0.52252   0.68020   0.30991   1.000
    C182    C    0.45269   0.61997   0.82076   1.000
    C183    C    0.45270   0.61996   0.32074   1.000
    C184    C    0.66235   0.75701   0.84704   1.000
    C185    C    0.66235   0.75701   0.34703   1.000
    C186    C    0.38087   0.61135   0.76522   1.000
    C187    C    0.38087   0.61135   0.26521   1.000
    C188    C    0.58819   0.69257   0.86103   1.000
    C189    C    0.58820   0.69256   0.36102   1.000
    C190    C    0.45083   0.56930   0.88254   1.000
    C191    C    0.45084   0.56929   0.38253   1.000
    C192    C    0.58532   0.64272   0.92321   1.000
    C193    C    0.58533   0.64271   0.42319   1.000
    C194    C    0.51836   0.57997   0.93350   1.000
    C195    C    0.51837   0.57996   0.43349   1.000
    C196    C    0.42470   0.81396   0.95745   1.000
    C197    C    0.42470   0.81396   0.45744   1.000
    C198    C    0.47273   0.77094   0.56256   1.000
    C199    C    0.47273   0.77094   0.06255   1.000
    C200    C    0.36711   0.75212   0.98473   1.000
    C201    C    0.36711   0.75211   0.48472   1.000
    C202    C    0.56450   0.88986   0.00170   1.000
    C203    C    0.56450   0.88986   0.50169   1.000
    C204    C    0.53351   0.97868   0.52472   1.000
    C205    C    0.53351   0.97868   0.02471   1.000
    C206    C    0.18409   0.42270   0.60740   1.000
    C207    C    0.18409   0.42270   0.10739   1.000
    C208    C    0.10851   0.42579   0.98658   1.000
    C209    C    0.10851   0.42579   0.48657   1.000
    C210    C    0.22103   0.52949   0.53427   1.000
    C211    C    0.22103   0.52950   0.03426   1.000
    C212    C    0.24161   0.47631   0.64124   1.000
    C213    C    0.24161   0.47631   0.14123   1.000
    C214    C    0.00816   0.45258   0.50262   1.000
    C215    C    0.00817   0.45258   0.00261   1.000
    C216    C    0.02295   0.81974   0.56010   1.000
    C217    C    0.02295   0.81973   0.06010   1.000
    C218    C    0.95325   0.87986   0.57080   1.000
    C219    C    0.95325   0.87985   0.07080   1.000
    C220    C    0.16263   0.74323   0.59726   1.000
    C221    C    0.16263   0.74323   0.09725   1.000
    C222    C    0.88145   0.88841   0.01529   1.000
    C223    C    0.88145   0.88841   0.51528   1.000
    C224    C    0.08860   0.80758   0.61125   1.000
    C225    C    0.08859   0.80757   0.11125   1.000
    C226    C    0.95142   0.93061   0.63250   1.000
    C227    C    0.95141   0.93061   0.13249   1.000
    C228    C    0.08574   0.85753   0.67336   1.000
    C229    C    0.08574   0.85752   0.17336   1.000
    C230    C    0.01881   0.92014   0.68354   1.000
    C231    C    0.01881   0.92013   0.18353   1.000
    C232    C    0.92437   0.68577   0.70811   1.000
    C233    C    0.92437   0.68577   0.20810   1.000
    C234    C    0.97263   0.72947   0.81297   1.000
    C235    C    0.97263   0.72947   0.31296   1.000
    C236    C    0.86693   0.74767   0.73513   1.000
    C237    C    0.86692   0.74767   0.23512   1.000
    C238    C    0.06418   0.61048   0.75264   1.000
    C239    C    0.06418   0.61048   0.25263   1.000
    C240    C    0.03300   0.52142   0.77513   1.000
    C241    C    0.03299   0.52142   0.27512   1.000
    C242    C    0.68372   0.07668   0.85822   1.000
    C243    C    0.68371   0.07667   0.35821   1.000
    C244    C    0.60888   0.07424   0.73706   1.000
    C245    C    0.60888   0.07424   0.23705   1.000
    C246    C    0.72159   0.97080   0.78453   1.000
    C247    C    0.72159   0.97080   0.28451   1.000
    C248    C    0.74141   0.02322   0.89188   1.000
    C249    C    0.74140   0.02322   0.39187   1.000
    C250    C    0.50838   0.04740   0.75284   1.000
    C251    C    0.50838   0.04740   0.25282   1.000
    C252    C    0.47745   0.31980   0.69007   1.000
    C253    C    0.47745   0.31980   0.19007   1.000
    C254    C    0.54727   0.38004   0.67924   1.000
    C255    C    0.54727   0.38004   0.17923   1.000
    C256    C    0.33762   0.24299   0.65295   1.000
    C257    C    0.33762   0.24299   0.15295   1.000
    C258    C    0.61910   0.38864   0.73477   1.000
    C259    C    0.61910   0.38865   0.23476   1.000
    C260    C    0.41177   0.30743   0.63897   1.000
    C261    C    0.41177   0.30743   0.13896   1.000
    C262    C    0.54913   0.43071   0.61746   1.000
    C263    C    0.54913   0.43071   0.11745   1.000
    C264    C    0.41464   0.35729   0.57679   1.000
    C265    C    0.41464   0.35729   0.07678   1.000
    C266    C    0.48160   0.42004   0.56650   1.000
    C267    C    0.48160   0.42004   0.06649   1.000
    C268    C    0.57527   0.18604   0.54255   1.000
    C269    C    0.57527   0.18604   0.04254   1.000
    C270    C    0.52724   0.22906   0.93744   1.000
    C271    C    0.52724   0.22906   0.43743   1.000
    C272    C    0.63286   0.24789   0.51527   1.000
    C273    C    0.63286   0.24789   0.01526   1.000
    C274    C    0.43548   0.11014   0.49830   1.000
    C275    C    0.43548   0.11014   0.00000   1.000
    C276    C    0.46646   0.02132   0.97528   1.000
    C277    C    0.46646   0.02132   0.47527   1.000
    C278    C    0.81587   0.57730   0.89259   1.000
    C279    C    0.81588   0.57730   0.39258   1.000
    C280    C    0.89145   0.57422   0.51341   1.000
    C281    C    0.89145   0.57422   0.01341   1.000
    C282    C    0.77894   0.47051   0.96572   1.000
    C283    C    0.77893   0.47051   0.46571   1.000
    C284    C    0.75836   0.52369   0.85875   1.000
    C285    C    0.75836   0.52369   0.35874   1.000
    C286    C    0.99179   0.54743   0.99738   1.000
    C287    C    0.99179   0.54743   0.49737   1.000
    N288    N    0.00920   0.32597   0.74205   1.000
    N289    N    0.00919   0.32597   0.24204   1.000
    N290    N    0.10251   0.22534   0.69920   1.000
    N291    N    0.10251   0.22533   0.19919   1.000
    N292    N    0.97326   0.03171   0.75265   1.000
    N293    N    0.97326   0.03170   0.25265   1.000
    N294    N    0.23565   0.04291   0.65455   1.000
    N295    N    0.23565   0.04291   0.15453   1.000
    N296    N    0.32819   0.95720   0.70987   1.000
    N297    N    0.32819   0.95720   0.20986   1.000
    N298    N    0.49107   0.82609   0.00728   1.000
    N299    N    0.49107   0.82609   0.50727   1.000
    N300    N    0.39749   0.72553   0.55054   1.000
    N301    N    0.39749   0.72553   0.05053   1.000
    N302    N    0.52647   0.53195   0.99735   1.000
    N303    N    0.52646   0.53195   0.49734   1.000
    N304    N    0.26393   0.54301   0.59515   1.000
    N305    N    0.26393   0.54301   0.09514   1.000
    N306    N    0.17167   0.45706   0.53956   1.000
    N307    N    0.17167   0.45707   0.03955   1.000
    N308    N    0.99078   0.67405   0.75794   1.000
    N309    N    0.99078   0.67404   0.25793   1.000
    N310    N    0.89746   0.77467   0.80079   1.000
    N311    N    0.89745   0.77467   0.30078   1.000
    N312    N    0.02672   0.96831   0.74733   1.000
    N313    N    0.02672   0.96831   0.24732   1.000
    N314    N    0.76431   0.95709   0.84545   1.000
    N315    N    0.76431   0.95709   0.34544   1.000
    N316    N    0.67177   0.04280   0.79012   1.000
    N317    N    0.67177   0.04280   0.29011   1.000
    N318    N    0.50890   0.17392   0.49272   1.000
    N319    N    0.50890   0.17392   0.00000   1.000
    N320    N    0.60248   0.27447   0.94946   1.000
    N321    N    0.60248   0.27447   0.44945   1.000
    N322    N    0.47351   0.46805   0.50264   1.000
    N323    N    0.47350   0.46806   0.00264   1.000
    N324    N    0.73603   0.45699   0.90484   1.000
    N325    N    0.73603   0.45699   0.40483   1.000
    N326    N    0.82829   0.54294   0.96043   1.000
    N327    N    0.82829   0.54294   0.46042   1.000
    O328    O    0.09793   0.15238   0.54467   1.000
    O329    O    0.09793   0.15238   0.04466   1.000
    O330    O    0.78250   0.26763   0.85043   1.000
    O331    O    0.78250   0.26763   0.35042   1.000
    O332    O    0.83186   0.29506   0.96204   1.000
    O333    O    0.83187   0.29507   0.46202   1.000
    O334    O    0.18960   0.06952   0.97143   1.000
    O335    O    0.18959   0.06951   0.47142   1.000
    O336    O    0.40192   0.65185   0.70512   1.000
    O337    O    0.40192   0.65185   0.20511   1.000
    O338    O    0.71705   0.76792   0.89945   1.000
    O339    O    0.71704   0.76792   0.39944   1.000
    O340    O    0.66806   0.79527   0.78771   1.000
    O341    O    0.66805   0.79528   0.28771   1.000
    O342    O    0.30940   0.56961   0.77856   1.000
    O343    O    0.30940   0.56962   0.27856   1.000
    O344    O    0.90204   0.84763   0.95532   1.000
    O345    O    0.90204   0.84762   0.45531   1.000
    O346    O    0.21746   0.73236   0.64957   1.000
    O347    O    0.21747   0.73237   0.14956   1.000
    O348    O    0.16810   0.70493   0.53796   1.000
    O349    O    0.16811   0.70494   0.03795   1.000
    O350    O    0.81036   0.93046   0.52857   1.000
    O351    O    0.81036   0.93047   0.02856   1.000
    O352    O    0.59805   0.34814   0.79487   1.000
    O353    O    0.59805   0.34814   0.29486   1.000
    O354    O    0.28292   0.23208   0.60055   1.000
    O355    O    0.28292   0.23208   0.10054   1.000
    O356    O    0.33192   0.20472   0.71228   1.000
    O357    O    0.33192   0.20472   0.21227   1.000
    O358    O    0.69057   0.43038   0.72143   1.000
    O359    O    0.69057   0.43038   0.22142   1.000
loop_
    _geom_bond_atom_site_label_1
    _geom_bond_atom_site_label_2
    _geom_bond_distance
    _geom_bond_site_symmetry_2
    _ccdc_geom_bond_type
    C275   N319      1.47247      .   S
    C275   H123      1.06875      .   S
    C275   H124      1.11609  1_554   S
    C275   C276      1.54536  1_554   S
    C151   O329      1.08058      .   S
    C151   C146      1.72602  1_554   S
    C151   O334      1.31935  1_554   S
    N319   C269      1.29359      .   S
    N319   C270      1.46476  1_554   S
    H9     C144      1.26371  1_554   S
    C202   N298      1.47195      .   S
    C202   C205      1.53680      .   S
    C202   H57       1.09693      .   S
    C202   H54       1.09797  1_554   S
    C215   H75       1.10219  1_455   S
    C215   H72       1.10150  1_454   S
    C215   C208      1.53574  1_554   S
    C215   C286      1.53156  1_454   S
    N323   C267      1.41718      .   S
    N323   N302      1.27519  1_554   S
    N298   C199      1.36216      .   S
    N298   C196      1.38500  1_554   S
    H76    C217      1.08644      .   S
    H137   C282      1.08111  1_554   S
    C281   H133      1.09902      .   S
    C281   H135      1.09986      .   S
    C281   N326      1.46691  1_554   S
    C281   C286      1.53573  1_554   S
    C273   H121      1.08220      .   S
    C273   C269      1.36969      .   S
    C273   N320      1.38444  1_554   S
    C222   O351      1.24635      .   S
    C222   C219      1.51138      .   S
    C222   O344      1.30657  1_554   S
    C205   H61       1.10077  1_565   S
    C205   H59       1.10217      .   S
    C205   C276      1.53279  1_564   S
    C211   N307      1.35739      .   S
    C211   N305      1.33519      .   S
    C211   H68       1.08110  1_554   S
    H141   C286      1.10151  1_454   S
    H115   C265      1.08795      .   S
    O349   C221      1.25404      .   S
    N307   C207      1.39009      .   S
    N307   C208      1.46692  1_554   S
    C269   H117      1.08056      .   S
    O329   Zn1       1.95499      .   S
    N301   C199      1.33990      .   S
    N301   Zn3       2.07616      .   S
    N301   C200      1.38443  1_554   S
    H37    C177      1.08447      .   S
    C217   C219      1.40168  1_455   S
    C217   C225      1.39520      .   S
    C199   H51       1.08421      .   S
    C267   C265      1.39960      .   S
    C267   C263      1.40931      .   S
    C219   C227      1.39754      .   S
    C265   C261      1.39587      .   S
    N305   Zn3       2.01837      .   S
    N305   C213      1.38793      .   S
    C221   C225      1.49989      .   S
    C221   O347      1.29975      .   S
    O355   Zn1       1.99486      .   S
    O355   C257      1.29976      .   S
    C207   H63       1.08136      .   S
    C207   C213      1.36963      .   S
    C177   C171      1.36957      .   S
    C177   N295      1.38789  1_565   S
    H113   C263      1.08843      .   S
    C225   C229      1.39618      .   S
    C263   C255      1.39771      .   S
    Zn3    O347      1.99549      .   S
    Zn3    O337      1.95351      .   S
    Zn1    N295      2.01811      .   S
    Zn1    N291      2.07466      .   S
    H29    C171      1.08138      .   S
    C227   H79       1.08839      .   S
    C227   C231      1.40888  1_655   S
    C261   C257      1.49948      .   S
    C261   C253      1.39505      .   S
    H17    C163      0.97306      .   S
    C213   H71       1.08439      .   S
    C171   N297      1.39016      .   S
    C257   O357      1.25387      .   S
    N295   C175      1.33518      .   S
    H83    C233      1.08050      .   S
    H25    C169      1.10221      .   S
    C229   C231      1.39996      .   S
    C229   H81       1.08805      .   S
    C255   C253      1.40207      .   S
    C255   C259      1.51192      .   S
    C231   N313      1.41732      .   S
    H101   C245      1.09984      .   S
    C163   N291      1.33986      .   S
    C163   N289      1.36228      .   S
    C253   H111      1.08668      .   S
    H41    C179      1.10236      .   S
    H89    C239      1.09799      .   S
    N291   C165      1.38473      .   S
    O337   C187      1.30670      .   S
    C233   C237      1.36967      .   S
    C233   N309      1.38506      .   S
    N297   C175      1.35745  1_565   S
    N297   C173      1.46720      .   S
    H87    C237      1.08226      .   S
    H23    C167      1.09710      .   S
    H107   C251      1.10195      .   S
    C175   H35       1.08138      .   S
    O359   C259      1.24645      .   S
    H27    C169      1.10076      .   S
    C169   C167      1.53708      .   S
    C169   C241      1.53280  1_655   S
    C259   O353      1.30669      .   S
    C237   N311      1.38471      .   S
    H99    C245      1.09907      .   S
    C245   C251      1.53593      .   S
    C245   N317      1.46722      .   S
    H103   C247      1.08135      .   S
    N289   C167      1.47168  1_455   S
    N289   C161      1.38506      .   S
    C179   C251      1.53164  1_565   S
    C179   C173      1.53594      .   S
    C179   H39       1.10196      .   S
    N313   N293      1.27533  1_465   S
    C167   H21       1.09799      .   S
    C239   N309      1.47168  1_455   S
    C239   C241      1.53708      .   S
    C239   H91       1.09709      .   S
    N293   C159      1.41733      .   S
    C251   H109      1.10236      .   S
    N309   C235      1.36227      .   S
    H43    C181      1.08668      .   S
    C173   H31       1.09907      .   S
    C173   H33       1.09986      .   S
    C165   H19       1.08224      .   S
    C165   C161      1.36967      .   S
    C187   O343      1.24644      .   S
    C187   C183      1.51191      .   S
    C241   H95       1.10076      .   S
    C241   H93       1.10221      .   S
    C247   N317      1.35747  1_565   S
    C247   N315      1.33520      .   S
    H13    C157      1.08804      .   S
    O341   C185      1.25387      .   S
    N317   C243      1.39016      .   S
    C161   H15       1.08051      .   S
    O353   Zn7       1.95355      .   S
    N311   C235      1.33985      .   S
    N311   Zn5       2.07466      .   S
    H139   C285      1.08438      .   S
    C181   C183      1.40207      .   S
    C181   C189      1.39505      .   S
    C235   H85       1.08422  1_655   S
    C159   C157      1.39995      .   S
    C159   C155      1.40888  1_655   S
    C183   C191      1.39773      .   S
    C157   C153      1.39618      .   S
    N315   Zn5       2.01822      .   S
    N315   C249      1.38787  1_565   S
    C185   C189      1.49947      .   S
    C185   O339      1.29976      .   S
    O331   Zn7       1.99543      .   S
    O331   C149      1.29977      .   S
    C243   H97       1.08137      .   S
    C243   C249      1.36957      .   S
    C285   C279      1.36964      .   S
    C285   N325      1.38794      .   S
    H11    C155      1.08839      .   S
    C189   C193      1.39588      .   S
    C155   C147      1.39755      .   S
    Zn5    O339      1.99487      .   S
    Zn5    O345      1.95492      .   S
    Zn7    N325      2.01836      .   S
    Zn7    N321      2.07612      .   S
    H131   C279      1.08137      .   S
    C191   H45       1.08843      .   S
    C191   C195      1.40931      .   S
    C153   C149      1.49987      .   S
    C153   C145      1.39521      .   S
    H119   C271      1.08420      .   S
    C249   H105      1.08447      .   S
    C279   N327      1.39008      .   S
    C149   O333      1.25402      .   S
    N325   C283      1.33518      .   S
    H49    C197      1.08055      .   S
    H127   C277      1.10219      .   S
    C193   C195      1.39960      .   S
    C193   H47       1.08794      .   S
    C147   C145      1.40167  1_455   S
    C147   C150      1.51159      .   S
    H67    C209      1.09986      .   S
    C195   N303      1.41716      .   S
    C271   N321      1.33990      .   S
    C271   N318      1.36239      .   S
    C145   H8        1.08669      .   S
    H143   C287      1.10220  1_455   S
    H55    C203      1.09797      .   S
    N321   C272      1.38471      .   S
    O345   C223      1.30658      .   S
    C197   C201      1.36971      .   S
    C197   N299      1.38501      .   S
    N327   C283      1.35739      .   S
    N327   C280      1.46713      .   S
    H53    C201      1.08219      .   S
    H73    C214      1.10171  1_655   S
    H125   C274      1.09712      .   S
    C283   H136      1.08133      .   S
    O335   C150      1.24640      .   S
    H129   C277      1.10077  1_565   S
    C277   C274      1.53688      .   S
    C277   C204      1.53299  1_545   S
    C150   O328      1.30658      .   S
    C201   N300      1.38470      .   S
    H65    C209      1.09902      .   S
    C209   C214      1.53578      .   S
    C209   N306      1.46714      .   S
    H69    C210      1.08134      .   S
    N318   C274      1.47194      .   S
    N318   C268      1.38500      .   S
    N303   N322      1.27520      .   S
    C287   C214      1.53157  1_655   S
    C287   C280      1.53578      .   S
    C287   H140      1.10170  1_655   S
    C274   H122      1.09798      .   S
    C203   N299      1.47194      .   S
    C203   C204      1.53688      .   S
    C203   H56       1.09711      .   S
    C214   H74       1.10220  1_455   S
    N322   C266      1.41717      .   S
    N299   C198      1.36238      .   S
    H77    C216      1.08667      .   S
    C280   H132      1.09903      .   S
    C280   H134      1.09988      .   S
    C272   H120      1.08219      .   S
    C272   C268      1.36970      .   S
    C223   O350      1.24640      .   S
    C223   C218      1.51160      .   S
    C204   H60       1.10077  1_565   S
    C204   H58       1.10218      .   S
    C210   N306      1.35739      .   S
    C210   N304      1.33518      .   S
    H114   C264      1.08794      .   S
    O348   C220      1.25404      .   S
    N306   C206      1.39009      .   S
    C268   H116      1.08055      .   S
    O328   Zn0       1.95498      .   S
    N300   C198      1.33990      .   S
    N300   Zn2       2.07616      .   S
    H36    C176      1.08445      .   S
    C216   C218      1.40168  1_455   S
    C216   C224      1.39522      .   S
    C198   H50       1.08421      .   S
    C266   C264      1.39960      .   S
    C266   C262      1.40932      .   S
    C218   C226      1.39753      .   S
    C264   C260      1.39588      .   S
    N304   Zn2       2.01836      .   S
    N304   C212      1.38794      .   S
    C220   C224      1.49989      .   S
    C220   O346      1.29973      .   S
    O354   Zn0       1.99486      .   S
    O354   C256      1.29975      .   S
    C206   H62       1.08138      .   S
    C206   C212      1.36963      .   S
    C176   C170      1.36957      .   S
    C176   N294      1.38789  1_565   S
    H112   C262      1.08843      .   S
    C224   C228      1.39618      .   S
    C262   C254      1.39772      .   S
    Zn2    O346      1.99550      .   S
    Zn2    O336      1.95351      .   S
    Zn0    N294      2.01813      .   S
    Zn0    N290      2.07469      .   S
    H28    C170      1.08136      .   S
    C226   H78       1.08840      .   S
    C226   C230      1.40888  1_655   S
    C260   C256      1.49948      .   S
    C260   C252      1.39506      .   S
    H16    C162      0.97308      .   S
    C212   H70       1.08439      .   S
    C170   N296      1.39017      .   S
    C256   O356      1.25387      .   S
    N294   C174      1.33519      .   S
    H82    C232      1.08050      .   S
    H24    C168      1.10221      .   S
    C228   C230      1.39996      .   S
    C228   H80       1.08804      .   S
    C254   C252      1.40206      .   S
    C254   C258      1.51192      .   S
    C230   N312      1.41733      .   S
    H100   C244      1.09986      .   S
    C162   N290      1.33984      .   S
    C162   N288      1.36227      .   S
    C252   H110      1.08668      .   S
    H40    C178      1.10234      .   S
    H88    C238      1.09800      .   S
    N290   C164      1.38471      .   S
    O336   C186      1.30669      .   S
    C232   C236      1.36968      .   S
    C232   N308      1.38507      .   S
    N296   C174      1.35745  1_565   S
    N296   C172      1.46721      .   S
    H86    C236      1.08226      .   S
    H22    C166      1.09711      .   S
    H106   C250      1.10196      .   S
    C174   H34       1.08137      .   S
    O358   C258      1.24644      .   S
    H26    C168      1.10076      .   S
    C168   C166      1.53708      .   S
    C168   C240      1.53280  1_655   S
    C258   O352      1.30670      .   S
    C236   N310      1.38472      .   S
    H98    C244      1.09906      .   S
    C244   C250      1.53594      .   S
    C244   N316      1.46721      .   S
    H102   C246      1.08136      .   S
    N288   C166      1.47168  1_455   S
    N288   C160      1.38507      .   S
    C178   C250      1.53164  1_565   S
    C178   C172      1.53593      .   S
    C178   H38       1.10197      .   S
    N312   N292      1.27534  1_465   S
    C166   H20       1.09799      .   S
    C238   N308      1.47168  1_455   S
    C238   C240      1.53708      .   S
    C238   H90       1.09710      .   S
    N292   C158      1.41733      .   S
    C250   H108      1.10236      .   S
    N308   C234      1.36228      .   S
    H42    C180      1.08668      .   S
    C172   H30       1.09906      .   S
    C172   H32       1.09985      .   S
    C164   H18       1.08226      .   S
    C164   C160      1.36967      .   S
    C186   O342      1.24645      .   S
    C186   C182      1.51191      .   S
    C240   H94       1.10078      .   S
    C240   H92       1.10221      .   S
    C246   N316      1.35746  1_565   S
    C246   N314      1.33521      .   S
    H12    C156      1.08805      .   S
    O340   C184      1.25388      .   S
    N316   C242      1.39017      .   S
    C160   H14       1.08051      .   S
    O352   Zn6       1.95354      .   S
    N310   C234      1.33985      .   S
    N310   Zn4       2.07464      .   S
    H138   C284      1.08438      .   S
    C180   C182      1.40208      .   S
    C180   C188      1.39506      .   S
    C234   H84       1.08422  1_655   S
    C158   C156      1.39995      .   S
    C158   C154      1.40888  1_655   S
    C182   C190      1.39773      .   S
    C156   C152      1.39618      .   S
    N314   Zn4       2.01820      .   S
    N314   C248      1.38788  1_565   S
    C184   C188      1.49947      .   S
    C184   O338      1.29975      .   S
    O330   Zn6       1.99543      .   S
    O330   C148      1.29974      .   S
    C242   H96       1.08137      .   S
    C242   C248      1.36958      .   S
    C284   C278      1.36963      .   S
    C284   N324      1.38794      .   S
    H10    C154      1.08839      .   S
    C188   C192      1.39590      .   S
    C154   C146      1.39754      .   S
    Zn4    O338      1.99487      .   S
    Zn4    O344      1.95493      .   S
    Zn6    N324      2.01837      .   S
    Zn6    N320      2.07610      .   S
    H130   C278      1.08138      .   S
    C190   H44       1.08842      .   S
    C190   C194      1.40932      .   S
    C152   C148      1.49989      .   S
    C152   C144      1.39521      .   S
    H118   C270      1.08421      .   S
    C248   H104      1.08445      .   S
    C278   N326      1.39010      .   S
    C148   O332      1.25404      .   S
    N324   C282      1.33517      .   S
    H48    C196      1.08054      .   S
    H126   C276      1.10218      .   S
    C192   C194      1.39960      .   S
    C192   H46       1.08794      .   S
    C146   C144      1.40167  1_455   S
    H66    C208      1.09986      .   S
    C194   N302      1.41717      .   S
    C270   N320      1.33990      .   S
    H142   C286      1.10220  1_455   S
    C196   C200      1.36971      .   S
    N326   C282      1.35739      .   S
    H52    C200      1.08220      .   S
    H128   C276      1.10077  1_565   S
    H64    C208      1.09902      .   S
