# CIF file generated by openbabel 2.4.90, see http://openbabel.sf.net
data_I
_chemical_name_common ''
_cell_length_a 13.544
_cell_length_b 14.801
_cell_length_c 21.599
_cell_angle_alpha 89.493
_cell_angle_beta 89.904
_cell_angle_gamma 90.087
_space_group_name_H-M_alt 'P 1'
_space_group_name_Hall 'P 1'
loop_
    _symmetry_equiv_pos_as_xyz
    x,y,z
loop_
    _atom_site_label
    _atom_site_type_symbol
    _atom_site_fract_x
    _atom_site_fract_y
    _atom_site_fract_z
    _atom_site_occupancy
    H0      H    0.65877   0.47763   0.64870   1.000
    H1      H    0.83666   0.52231   0.64285   1.000
    H2      H    0.85864   0.36153   0.47709   1.000
    H3      H    0.67988   0.32924   0.48831   1.000
    H4      H    0.99253   0.51837   0.58837   1.000
    H5      H    0.31909   0.46976   0.63434   1.000
    H6      H    0.13980   0.49382   0.61555   1.000
    H7      H    0.16651   0.32292   0.45561   1.000
    H8      H    0.34650   0.30740   0.48080   1.000
    H9      H    0.00648   0.37287   0.48756   1.000
    H10     H    0.48968   0.11832   0.68674   1.000
    H11     H    0.50893   0.28869   0.76658   1.000
    H12     H    0.49977   0.08169   0.79921   1.000
    H13     H    0.51611   0.25000   0.88164   1.000
    H14     H    0.34080   0.98055   0.85040   1.000
    H15     H    0.16345   0.02598   0.85709   1.000
    H16     H    0.14184   0.86132   0.02305   1.000
    H17     H    0.32018   0.82840   0.01105   1.000
    H18     H    0.00769   0.02005   0.91150   1.000
    H19     H    0.68193   0.97174   0.86451   1.000
    H20     H    0.86086   0.99620   0.88410   1.000
    H21     H    0.83255   0.82190   0.04438   1.000
    H22     H    0.65298   0.80605   0.01829   1.000
    H23     H    0.99316   0.87238   0.01259   1.000
    H24     H    0.50783   0.62302   0.81480   1.000
    H25     H    0.49090   0.79092   0.73035   1.000
    H26     H    0.49956   0.58297   0.70329   1.000
    H27     H    0.48401   0.74868   0.61641   1.000
    H28     H    0.34126   0.52235   0.35128   1.000
    H29     H    0.16337   0.47767   0.35713   1.000
    H30     H    0.14139   0.63851   0.52286   1.000
    H31     H    0.32015   0.67079   0.51164   1.000
    H32     H    0.00749   0.48165   0.41160   1.000
    H33     H    0.68095   0.53031   0.36563   1.000
    H34     H    0.86023   0.50624   0.38441   1.000
    H35     H    0.83351   0.67709   0.54438   1.000
    H36     H    0.65352   0.69261   0.51919   1.000
    H37     H    0.99355   0.62714   0.51242   1.000
    H38     H    0.51039   0.88198   0.31319   1.000
    H39     H    0.49109   0.71148   0.23350   1.000
    H40     H    0.50025   0.91841   0.20066   1.000
    H41     H    0.48390   0.74999   0.11834   1.000
    H42     H    0.65921   0.01945   0.14951   1.000
    H43     H    0.83657   0.97404   0.14288   1.000
    H44     H    0.85819   0.13870   0.97692   1.000
    H45     H    0.67985   0.17161   0.98891   1.000
    H46     H    0.99233   0.97997   0.08840   1.000
    H47     H    0.31811   0.02827   0.13540   1.000
    H48     H    0.13918   0.00382   0.11580   1.000
    H49     H    0.16748   0.17811   0.95559   1.000
    H50     H    0.34706   0.19395   0.98167   1.000
    H51     H    0.00688   0.12765   0.98739   1.000
    H52     H    0.49220   0.37698   0.18515   1.000
    H53     H    0.50909   0.20911   0.26962   1.000
    H54     H    0.50046   0.41706   0.29664   1.000
    H55     H    0.51598   0.25138   0.38354   1.000
    H56     H    0.84005   0.51906   0.14955   1.000
    H57     H    0.66256   0.47373   0.14287   1.000
    H58     H    0.64251   0.63870   0.97705   1.000
    H59     H    0.82086   0.67165   0.98914   1.000
    H60     H    0.50711   0.47982   0.08838   1.000
    H61     H    0.18123   0.52842   0.13547   1.000
    H62     H    0.36019   0.50388   0.11593   1.000
    H63     H    0.33353   0.67809   0.95560   1.000
    H64     H    0.15379   0.69389   0.98157   1.000
    H65     H    0.49371   0.62766   0.98740   1.000
    H66     H    0.00000   0.87703   0.18513   1.000
    H67     H    0.99086   0.70911   0.26964   1.000
    H68     H    0.99947   0.91710   0.29663   1.000
    H69     H    0.98396   0.75138   0.38358   1.000
    H70     H    0.15949   0.02229   0.35134   1.000
    H71     H    0.33719   0.97768   0.35728   1.000
    H72     H    0.35860   0.13856   0.52299   1.000
    H73     H    0.18004   0.17084   0.51167   1.000
    H74     H    0.49285   0.98210   0.41161   1.000
    H75     H    0.81955   0.03045   0.36568   1.000
    H76     H    0.64006   0.00655   0.38448   1.000
    H77     H    0.66672   0.17732   0.54447   1.000
    H78     H    0.84691   0.19273   0.51923   1.000
    H79     H    0.50664   0.12716   0.51271   1.000
    H80     H    0.98973   0.38215   0.31328   1.000
    H81     H    0.00882   0.21165   0.23359   1.000
    H82     H    0.99963   0.41853   0.20066   1.000
    H83     H    0.01554   0.25003   0.11838   1.000
    H84     H    0.15998   0.48095   0.85043   1.000
    H85     H    0.33746   0.52629   0.85711   1.000
    H86     H    0.35753   0.36132   0.02290   1.000
    H87     H    0.17918   0.32836   0.01084   1.000
    H88     H    0.49292   0.52019   0.91159   1.000
    H89     H    0.81880   0.47159   0.86451   1.000
    H90     H    0.63985   0.49613   0.88404   1.000
    H91     H    0.66650   0.32193   0.04438   1.000
    C92     C    0.31842   0.54780   0.08487   1.000
    C93     C    0.36199   0.58721   0.03230   1.000
    C94     C    0.30209   0.64381   0.99597   1.000
    C95     C    0.20281   0.65301   0.01014   1.000
    H96     H    0.84624   0.30612   0.01841   1.000
    H97     H    0.50632   0.37235   0.01250   1.000
    H98     H    0.99239   0.12297   0.81485   1.000
    H99     H    0.00914   0.29089   0.73034   1.000
    H100    H    0.00055   0.08291   0.70335   1.000
    H101    H    0.01602   0.24863   0.61640   1.000
    H102    H    0.84058   0.97774   0.64864   1.000
    H103    H    0.66288   0.02237   0.64270   1.000
    H104    H    0.64139   0.86150   0.47700   1.000
    H105    H    0.81995   0.82918   0.48831   1.000
    H106    H    0.50719   0.01796   0.58842   1.000
    H107    H    0.18044   0.96953   0.63433   1.000
    H108    H    0.35993   0.99346   0.61556   1.000
    H109    H    0.33334   0.82279   0.45551   1.000
    H110    H    0.15315   0.80733   0.48073   1.000
    H111    H    0.49339   0.87293   0.48730   1.000
    H112    H    0.00000   0.61785   0.68669   1.000
    H113    H    0.99119   0.78834   0.76638   1.000
    H114    H    0.00000   0.58147   0.79932   1.000
    H115    H    0.98445   0.74997   0.88160   1.000
    C116    C    0.70627   0.45367   0.61156   1.000
    C117    C    0.80551   0.47748   0.60812   1.000
    C118    C    0.86343   0.44796   0.55830   1.000
    C119    C    0.81822   0.38945   0.51621   1.000
    C120    C    0.71823   0.37029   0.52220   1.000
    C121    C    0.96265   0.48902   0.54585   1.000
    C122    C    0.28209   0.43795   0.59539   1.000
    C123    C    0.18166   0.45067   0.58448   1.000
    C124    C    0.20226   0.84742   0.50936   1.000
    C125    C    0.46212   0.93434   0.50740   1.000
    C126    C    0.00000   0.68962   0.69763   1.000
    C127    C    0.99678   0.71595   0.75723   1.000
    C128    C    0.13808   0.41226   0.53217   1.000
    C129    C    0.19802   0.35649   0.49575   1.000
    C130    C    0.29743   0.34756   0.50943   1.000
    C131    C    0.03781   0.43441   0.50749   1.000
    C132    C    0.49549   0.19009   0.69773   1.000
    C133    C    0.50334   0.21630   0.75733   1.000
    C134    C    0.50459   0.15405   0.80899   1.000
    C135    C    0.51110   0.17888   0.86896   1.000
    C136    C    0.29355   0.95594   0.88780   1.000
    C137    C    0.19455   0.98016   0.89173   1.000
    C138    C    0.13680   0.94951   0.94170   1.000
    C139    C    0.18209   0.89002   0.98374   1.000
    C140    C    0.28182   0.87045   0.97730   1.000
    C141    C    0.03759   0.99007   0.95422   1.000
    C142    C    0.71846   0.93927   0.90373   1.000
    C143    C    0.81875   0.95226   0.91513   1.000
    C144    C    0.86187   0.91283   0.96767   1.000
    C145    C    0.80152   0.85620   0.00400   1.000
    C146    C    0.70233   0.84699   0.98978   1.000
    C147    C    0.96213   0.93447   0.99260   1.000
    C148    C    0.50274   0.69445   0.80190   1.000
    C149    C    0.49590   0.71884   0.74158   1.000
    C150    C    0.49492   0.65499   0.69159   1.000
    C151    C    0.48885   0.67797   0.63096   1.000
    C152    C    0.29376   0.54632   0.38841   1.000
    C153    C    0.19452   0.52252   0.39186   1.000
    C154    C    0.13659   0.55206   0.44164   1.000
    C155    C    0.18181   0.61057   0.48370   1.000
    C156    C    0.28180   0.62974   0.47775   1.000
    C157    C    0.03738   0.51100   0.45412   1.000
    C158    C    0.71794   0.56211   0.40458   1.000
    C159    C    0.81837   0.54938   0.41549   1.000
    C160    C    0.86195   0.58777   0.46781   1.000
    C161    C    0.80201   0.64352   0.50423   1.000
    C162    C    0.70260   0.65247   0.49055   1.000
    C163    C    0.96222   0.56561   0.49248   1.000
    C164    C    0.50457   0.81019   0.30226   1.000
    C165    C    0.49669   0.78388   0.24268   1.000
    C166    C    0.49542   0.84603   0.19096   1.000
    C167    C    0.48892   0.82112   0.13100   1.000
    C168    C    0.70647   0.04407   0.11211   1.000
    C169    C    0.80546   0.01985   0.10824   1.000
    C170    C    0.86323   0.05051   0.05828   1.000
    C171    C    0.81794   0.11000   0.01623   1.000
    C172    C    0.71820   0.12957   0.02267   1.000
    C173    C    0.96244   0.00996   0.04576   1.000
    C174    C    0.28158   0.06074   0.09624   1.000
    C175    C    0.18129   0.04776   0.08485   1.000
    C176    C    0.13816   0.08718   0.03230   1.000
    C177    C    0.19852   0.14381   0.99598   1.000
    C178    C    0.29770   0.15302   0.01019   1.000
    C179    C    0.03790   0.06555   0.00730   1.000
    C180    C    0.49729   0.30556   0.19805   1.000
    C181    C    0.50411   0.28118   0.25838   1.000
    C182    C    0.50509   0.34505   0.30836   1.000
    C183    C    0.51116   0.32208   0.36899   1.000
    C184    C    0.79309   0.54379   0.11218   1.000
    C185    C    0.69402   0.51962   0.10828   1.000
    C186    C    0.63665   0.55036   0.05833   1.000
    C187    C    0.68239   0.60995   0.01636   1.000
    C188    C    0.78215   0.62951   0.02284   1.000
    C189    C    0.53736   0.50987   0.04577   1.000
    C190    C    0.21811   0.56083   0.09624   1.000
    C191    C    0.46231   0.56555   0.00743   1.000
    C192    C    0.00000   0.80559   0.19800   1.000
    C193    C    0.99582   0.78120   0.25839   1.000
    C194    C    0.99485   0.84507   0.30837   1.000
    C195    C    0.98881   0.82209   0.36901   1.000
    C196    C    0.20680   0.04631   0.38850   1.000
    C197    C    0.30595   0.02252   0.39199   1.000
    C198    C    0.36367   0.05210   0.44179   1.000
    C199    C    0.31834   0.11059   0.48387   1.000
    C200    C    0.21845   0.12975   0.47780   1.000
    C201    C    0.46278   0.01118   0.45420   1.000
    C202    C    0.78249   0.06228   0.40463   1.000
    C203    C    0.68195   0.04965   0.41555   1.000
    C204    C    0.63830   0.08804   0.46789   1.000
    C205    C    0.69827   0.14375   0.50431   1.000
    C206    C    0.79778   0.15263   0.49062   1.000
    C207    C    0.53790   0.06574   0.49260   1.000
    C208    C    0.99556   0.31037   0.30234   1.000
    C209    C    0.00324   0.28405   0.24270   1.000
    C210    C    0.00435   0.34614   0.19099   1.000
    C211    C    0.01066   0.32116   0.13103   1.000
    C212    C    0.20694   0.45622   0.88780   1.000
    C213    C    0.30601   0.48040   0.89170   1.000
    C214    C    0.36338   0.44965   0.94164   1.000
    C215    C    0.31764   0.39006   0.98362   1.000
    C216    C    0.21788   0.37050   0.97714   1.000
    C217    C    0.46267   0.49015   0.95420   1.000
    C218    C    0.78192   0.43918   0.90373   1.000
    C219    C    0.68162   0.45221   0.91510   1.000
    C220    C    0.63804   0.41281   0.96764   1.000
    C221    C    0.69794   0.35621   0.00401   1.000
    C222    C    0.79722   0.34700   0.98984   1.000
    C223    C    0.53772   0.43446   0.99254   1.000
    C224    C    0.99742   0.19442   0.80190   1.000
    C225    C    0.00419   0.21881   0.74159   1.000
    C226    C    0.00517   0.15493   0.69161   1.000
    C227    C    0.01120   0.17791   0.63097   1.000
    C228    C    0.79325   0.95373   0.61149   1.000
    C229    C    0.69410   0.97754   0.60800   1.000
    C230    C    0.63636   0.94796   0.55822   1.000
    C231    C    0.68166   0.88947   0.51610   1.000
    C232    C    0.78155   0.87028   0.52217   1.000
    C233    C    0.53725   0.98889   0.54582   1.000
    C234    C    0.21752   0.93773   0.59537   1.000
    C235    C    0.31805   0.95038   0.58446   1.000
    C236    C    0.36173   0.91203   0.53212   1.000
    C237    C    0.30177   0.85632   0.49568   1.000
    C238    C    0.99567   0.65386   0.80899   1.000
    C239    C    0.98936   0.67884   0.86895   1.000
    N240    N    0.66158   0.40326   0.56804   1.000
    N241    N    0.34049   0.38972   0.55750   1.000
    N242    N    0.33823   0.90403   0.93109   1.000
    N243    N    0.65973   0.88977   0.94131   1.000
    N244    N    0.33845   0.59675   0.43192   1.000
    N245    N    0.65954   0.61032   0.44246   1.000
    N246    N    0.66178   0.09597   0.06887   1.000
    N247    N    0.34031   0.11023   0.05865   1.000
    N248    N    0.83819   0.59581   0.06900   1.000
    N249    N    0.15978   0.61028   0.05861   1.000
    N250    N    0.16197   0.09678   0.43196   1.000
    N251    N    0.84088   0.11042   0.44253   1.000
    N252    N    0.16184   0.40421   0.93097   1.000
    N253    N    0.84025   0.38973   0.94137   1.000
    N254    N    0.83806   0.90324   0.56802   1.000
    N255    N    0.15914   0.88960   0.55746   1.000
loop_
    _geom_bond_atom_site_label_1
    _geom_bond_atom_site_label_2
    _geom_bond_distance
    _geom_bond_site_symmetry_2
    _ccdc_geom_bond_type
    C145   H21       1.09042      .   S
    C145   C144      1.40381  1_554   S
    C145   C146      1.38531  1_554   S
    C221   H91       1.09058      .   S
    C221   C220      1.40346  1_554   S
    C221   C222      1.38564  1_554   S
    C179   C176      1.49745      .   S
    C179   C173      1.54734  1_455   S
    C179   C141      1.60790  1_544   S
    C179   H51       1.09590  1_554   S
    C191   C93       1.49649      .   S
    C191   C189      1.54637      .   S
    C191   C217      1.60938  1_554   S
    C191   H65       1.09737  1_554   S
    C95    N249      1.34938      .   S
    C95    H64       1.08799  1_554   S
    C95    C94       1.38565  1_554   S
    C178   N247      1.34942      .   S
    C178   H50       1.08818  1_554   S
    C178   C177      1.38529  1_554   S
    H87    C216      1.08785  1_554   S
    H17    C140      1.08758  1_554   S
    H97    C223      1.09678  1_554   S
    H23    C147      1.09656  1_554   S
    C171   C172      1.38899      .   S
    C171   C170      1.40211      .   S
    C171   H44       1.09082  1_554   S
    C187   C188      1.38895      .   S
    C187   C186      1.40200      .   S
    C187   H58       1.09068  1_554   S
    H22    C146      1.08810  1_554   S
    H96    C222      1.08799  1_554   S
    C172   N246      1.34694      .   S
    C172   H45       1.08768  1_554   S
    C188   N248      1.34680      .   S
    C188   H59       1.08786  1_554   S
    H86    C215      1.09019  1_554   S
    H16    C139      1.09078  1_554   S
    C93    C92       1.40095      .   S
    C93    C94       1.40300  1_554   S
    C176   C175      1.40053      .   S
    C176   C177      1.40364  1_554   S
    C173   C170      1.49768      .   S
    C173   H46       1.09711  1_545   S
    C173   C147      1.60916  1_544   S
    C189   C186      1.49771      .   S
    C189   H60       1.09706      .   S
    C189   C223      1.60938  1_554   S
    C170   C169      1.40348      .   S
    C186   C185      1.40354      .   S
    N249   C190      1.34680      .   S
    N247   C174      1.34687      .   S
    N246   C168      1.34877      .   S
    N248   C184      1.34892      .   S
    C175   C174      1.39410      .   S
    C175   H48       1.08862      .   S
    C92    C190      1.39412      .   S
    C92    H62       1.08970      .   S
    C190   H61       1.09009      .   S
    C174   H47       1.08910      .   S
    C169   C168      1.39104      .   S
    C169   H43       1.09084  1_545   S
    C185   C184      1.39111      .   S
    C185   H57       1.09090      .   S
    C168   H42       1.08965      .   S
    C184   H56       1.08957      .   S
    H41    C167      1.09211      .   S
    H83    C211      1.09214      .   S
    C167   C166      1.35266      .   S
    C211   C210      1.35255      .   S
    H66    C192      1.09097      .   S
    H52    C180      1.09321      .   S
    C166   H40       1.09530      .   S
    C166   C165      1.44094      .   S
    C210   H82       1.09531  1_455   S
    C210   C209      1.44014      .   S
    C192   C193      1.35139  1_455   S
    C180   C181      1.35234      .   S
    H39    C165      1.09410      .   S
    H81    C209      1.09387      .   S
    C165   C164      1.35213      .   S
    C209   C208      1.35298  1_455   S
    C181   H53       1.09412      .   S
    C181   C182      1.44127      .   S
    C193   H67       1.09409      .   S
    C193   C194      1.44129      .   S
    H68    C194      1.09526      .   S
    H54    C182      1.09525      .   S
    C164   H38       1.09326      .   S
    C208   H80       1.09328      .   S
    C182   C183      1.35270      .   S
    C194   C195      1.35259      .   S
    H28    C152      1.08948      .   S
    H70    C196      1.08963      .   S
    H29    C153      1.09102      .   S
    H71    C197      1.09086  1_565   S
    H33    C158      1.08993      .   S
    H75    C202      1.08996      .   S
    C183   H55       1.09209      .   S
    C195   H69       1.09212      .   S
    H34    C159      1.08961      .   S
    H76    C203      1.08950      .   S
    C152   C153      1.39075      .   S
    C152   N244      1.34896      .   S
    C196   C197      1.39080      .   S
    C196   N250      1.34902      .   S
    C153   C154      1.40331      .   S
    C197   C198      1.40358      .   S
    C158   C159      1.39368      .   S
    C158   N245      1.34691      .   S
    C202   C203      1.39354      .   S
    C202   N251      1.34690      .   S
    H32    C157      1.09722      .   S
    H74    C201      1.09707  1_565   S
    C159   C160      1.40030      .   S
    C203   C204      1.40021      .   S
    N244   C156      1.34687      .   S
    N250   C200      1.34670      .   S
    C154   C157      1.49699      .   S
    C154   C155      1.40168      .   S
    C198   C201      1.49710      .   S
    C198   C199      1.40218      .   S
    N245   C162      1.34926      .   S
    N251   C206      1.34928      .   S
    C157   C163      1.54517  1_455   S
    C157   C131      1.60957      .   S
    C201   C207      1.54506      .   S
    C201   C125      1.60955  1_545   S
    H109   C237      1.09042      .   S
    H7     C129      1.09040      .   S
    C160   C163      1.49551      .   S
    C160   C161      1.40358      .   S
    C204   C207      1.49525      .   S
    C204   C205      1.40367      .   S
    H104   C231      1.09047      .   S
    H2     C119      1.09080      .   S
    C156   C155      1.38868      .   S
    C156   H31       1.08770      .   S
    C200   C199      1.38892      .   S
    C200   H73       1.08781      .   S
    H110   C124      1.08796      .   S
    H8     C130      1.08801      .   S
    C155   H30       1.09151      .   S
    C199   H72       1.09075      .   S
    H111   C125      1.09619      .   S
    H9     C131      1.09610      .   S
    H105   C232      1.08761      .   S
    H3     C120      1.08764      .   S
    C162   C161      1.38518      .   S
    C162   H36       1.08805      .   S
    C206   C205      1.38513      .   S
    C206   H78       1.08790      .   S
    C163   H37       1.09616      .   S
    C163   C121      1.60959      .   S
    C207   H79       1.09634      .   S
    C207   C233      1.60991  1_545   S
    C237   C124      1.38513      .   S
    C237   C236      1.40367      .   S
    C129   C130      1.38517      .   S
    C129   C128      1.40369      .   S
    C161   H35       1.09047      .   S
    C205   H77       1.09037      .   S
    C125   C236      1.49540      .   S
    C125   C233      1.54529      .   S
    C131   C128      1.49554      .   S
    C131   C121      1.54518  1_455   S
    C124   N255      1.34930      .   S
    C130   N241      1.34908      .   S
    C231   C232      1.38896      .   S
    C231   C230      1.40265      .   S
    C119   C120      1.38876      .   S
    C119   C118      1.40197      .   S
    C232   N254      1.34694      .   S
    C120   N240      1.34694      .   S
    C236   C235      1.40008      .   S
    C128   C123      1.40026      .   S
    C233   C230      1.49715      .   S
    C233   H106      1.09712  1_565   S
    C121   C118      1.49689      .   S
    C121   H4        1.09717      .   S
    N255   C234      1.34678      .   S
    N241   C122      1.34711      .   S
    C230   C229      1.40337      .   S
    C118   C117      1.40387      .   S
    N254   C228      1.34912      .   S
    N240   C116      1.34893      .   S
    C235   C234      1.39357      .   S
    C235   H108      1.08966      .   S
    C123   C122      1.39368      .   S
    C123   H6        1.08958      .   S
    C234   H107      1.09002      .   S
    C122   H5        1.09004      .   S
    C229   C228      1.39080      .   S
    C229   H103      1.09066  1_565   S
    C117   C116      1.39076      .   S
    C117   H1        1.09090      .   S
    C228   H102      1.08956      .   S
    C116   H0        1.08954      .   S
    H101   C227      1.09210      .   S
    H27    C151      1.09210      .   S
    C151   C150      1.35275      .   S
    C227   C226      1.35259      .   S
    H112   C126      1.09033      .   S
    H10    C132      1.09319      .   S
    C150   H26       1.09520      .   S
    C150   C149      1.44127      .   S
    C226   H100      1.09527      .   S
    C226   C225      1.44129      .   S
    C126   C127      1.34892  1_455   S
    C132   C133      1.35209      .   S
    H99    C225      1.09410      .   S
    H25    C149      1.09412      .   S
    C149   C148      1.35221      .   S
    C225   C224      1.35157  1_455   S
    C127   H113      1.09405      .   S
    C127   C238      1.44094      .   S
    C133   H11       1.09407      .   S
    C133   C134      1.44094      .   S
    H12    C134      1.09532      .   S
    H114   C238      1.09502  1_455   S
    C224   H98       1.09341      .   S
    C148   H24       1.09327      .   S
    C238   C239      1.35257      .   S
    C134   C135      1.35255      .   S
    H14    C136      1.08959      .   S
    H84    C212      1.08960      .   S
    H15    C137      1.09088  1_545   S
    H85    C213      1.09091      .   S
    H89    C218      1.08991      .   S
    H19    C142      1.09009      .   S
    C239   H115      1.09217      .   S
    C135   H13       1.09209      .   S
    H90    C219      1.08969      .   S
    H20    C143      1.08971      .   S
    C212   C213      1.39110      .   S
    C212   N252      1.34877      .   S
    C136   C137      1.39113      .   S
    C136   N242      1.34955      .   S
    C213   C214      1.40339      .   S
    C137   C138      1.40357      .   S
    C218   C219      1.39414      .   S
    C218   N253      1.34691      .   S
    C142   C143      1.39413      .   S
    C142   N243      1.34679      .   S
    H18    C141      1.09858  1_545   S
    H88    C217      1.09706      .   S
    C219   C220      1.40042      .   S
    C143   C144      1.40034      .   S
    N252   C216      1.34698      .   S
    N242   C140      1.34705      .   S
    N243   C146      1.34956      .   S
    N253   C222      1.34938      .   S
    C214   C217      1.49771      .   S
    C214   C215      1.40212      .   S
    C138   C141      1.49766      .   S
    C138   C139      1.40201      .   S
    C217   C223      1.54638      .   S
    C141   C147      1.54640  1_455   S
    H49    C177      1.09060      .   S
    H63    C94       1.09058      .   S
    C220   C223      1.49674      .   S
    C144   C147      1.49687      .   S
    C216   C215      1.38896      .   S
    C140   C139      1.38896      .   S
