# CIF file generated by openbabel 2.4.90, see http://openbabel.sf.net
data_I
_chemical_name_common ''
_cell_length_a 13.544
_cell_length_b 14.801
_cell_length_c 21.599
_cell_angle_alpha 89.493
_cell_angle_beta 89.904
_cell_angle_gamma 90.087
_space_group_name_H-M_alt 'P 1'
_space_group_name_Hall 'P 1'
loop_
    _symmetry_equiv_pos_as_xyz
    x,y,z
loop_
    _atom_site_label
    _atom_site_type_symbol
    _atom_site_fract_x
    _atom_site_fract_y
    _atom_site_fract_z
    _atom_site_occupancy
    Zn0     Zn   0.49973   0.89397   0.93348   1.000
    Zn1     Zn   0.49987   0.60553   0.43447   1.000
    Zn2     Zn   0.50031   0.10603   0.06648   1.000
    Zn3     Zn   0.99973   0.60604   0.06649   1.000
    Zn4     Zn   0.00035   0.10554   0.43446   1.000
    Zn5     Zn   0.00031   0.39396   0.93349   1.000
    Zn6     Zn   0.99968   0.89446   0.56550   1.000
    Zn7     Zn   0.50017   0.39451   0.56548   1.000
    C8      C    0.00000   0.75238   0.64342   1.000
    C9      C    0.49519   0.25284   0.64350   1.000
    C10     C    0.51032   0.11288   0.92137   1.000
    C11     C    0.50266   0.75876   0.85442   1.000
    C12     C    0.48971   0.61061   0.58018   1.000
    C13     C    0.50488   0.74746   0.35647   1.000
    C14     C    0.48969   0.88711   0.07857   1.000
    C15     C    0.49737   0.24124   0.14554   1.000
    C16     C    0.51031   0.38944   0.41978   1.000
    C17     C    0.00000   0.74126   0.14554   1.000
    C18     C    0.98970   0.88945   0.41979   1.000
    C19     C    0.99538   0.24762   0.35655   1.000
    C20     C    0.00989   0.38711   0.07857   1.000
    C21     C    0.99744   0.25874   0.85444   1.000
    C22     C    0.01032   0.11055   0.58019   1.000
    C23     C    0.99014   0.61289   0.92140   1.000
    O24     O    0.49919   0.33846   0.65354   1.000
    O25     O    0.49181   0.21910   0.58986   1.000
    O26     O    0.51192   0.14837   0.97521   1.000
    O27     O    0.50806   0.02933   0.90870   1.000
    O28     O    0.50058   0.84414   0.84281   1.000
    O29     O    0.50404   0.72646   0.90910   1.000
    O30     O    0.48800   0.64472   0.52555   1.000
    O31     O    0.49212   0.52734   0.59480   1.000
    O32     O    0.50086   0.66184   0.34647   1.000
    O33     O    0.50831   0.78115   0.41016   1.000
    O34     O    0.48811   0.85161   0.02474   1.000
    O35     O    0.49198   0.97065   0.09116   1.000
    O36     O    0.49945   0.15586   0.15716   1.000
    O37     O    0.49600   0.27353   0.09086   1.000
    O38     O    0.51201   0.35531   0.47440   1.000
    O39     O    0.50792   0.47271   0.40516   1.000
    O40     O    0.00047   0.65588   0.15717   1.000
    O41     O    0.00000   0.77354   0.09085   1.000
    O42     O    0.98799   0.85533   0.47442   1.000
    O43     O    0.99212   0.97274   0.40516   1.000
    O44     O    0.99967   0.16203   0.34651   1.000
    O45     O    0.99177   0.28124   0.41026   1.000
    O46     O    0.01142   0.35159   0.02470   1.000
    O47     O    0.00777   0.47066   0.09110   1.000
    O48     O    0.99956   0.34412   0.84281   1.000
    O49     O    0.99600   0.22646   0.90913   1.000
    O50     O    0.01204   0.14467   0.52556   1.000
    O51     O    0.00792   0.02727   0.59482   1.000
    O52     O    0.00036   0.83797   0.65347   1.000
    O53     O    0.00000   0.71876   0.58972   1.000
    O54     O    0.98861   0.64842   0.97523   1.000
    O55     O    0.99226   0.52935   0.90880   1.000
    Ts56    Ts   0.44589   0.89732   0.93268   1.000
    Ts57    Ts   0.55306   0.89257   0.93609   1.000
    Ts58    Ts   0.44606   0.60261   0.43362   1.000
    Ts59    Ts   0.55309   0.60713   0.43713   1.000
    Ts60    Ts   0.55413   0.10268   0.06728   1.000
    Ts61    Ts   0.44698   0.10743   0.06387   1.000
    Ts62    Ts   0.94589   0.60263   0.06733   1.000
    Ts63    Ts   0.05308   0.60746   0.06386   1.000
    Ts64    Ts   0.05422   0.10262   0.43363   1.000
    Ts65    Ts   0.94719   0.10716   0.43715   1.000
    Ts66    Ts   0.05415   0.39738   0.93265   1.000
    Ts67    Ts   0.94696   0.39255   0.93612   1.000
    Ts68    Ts   0.94581   0.89739   0.56634   1.000
    Ts69    Ts   0.05284   0.89284   0.56282   1.000
    Ts70    Ts   0.55397   0.39743   0.56633   1.000
    Ts71    Ts   0.44694   0.39292   0.56282   1.000
    Og72    Og   0.00000   0.73146   0.66149   1.000
    Og73    Og   0.49529   0.23192   0.66158   1.000
    Og74    Og   0.51058   0.13488   0.90390   1.000
    Og75    Og   0.50269   0.73732   0.83691   1.000
    Og76    Og   0.48943   0.63306   0.59711   1.000
    Og77    Og   0.50478   0.76837   0.33840   1.000
    Og78    Og   0.48943   0.86511   0.09605   1.000
    Og79    Og   0.49734   0.26268   0.16304   1.000
    Og80    Og   0.51059   0.36699   0.40285   1.000
    Og81    Og   0.00000   0.76271   0.16303   1.000
    Og82    Og   0.98941   0.86700   0.40286   1.000
    Og83    Og   0.99544   0.26854   0.33848   1.000
    Og84    Og   0.01015   0.36513   0.09606   1.000
    Og85    Og   0.99744   0.23730   0.83693   1.000
    Og86    Og   0.01061   0.13300   0.59712   1.000
    Og87    Og   0.98988   0.63488   0.90392   1.000
loop_
    _geom_bond_atom_site_label_1
    _geom_bond_atom_site_label_2
    _geom_bond_distance
    _geom_bond_site_symmetry_2
    _ccdc_geom_bond_type
    O46    C20       1.28121      .   S
    O46    Zn5       2.06798  1_554   S
    O34    C14       1.28030      .   S
    O34    Zn0       2.06881  1_554   S
    Zn2    O35       2.07175  1_545   S
    Zn2    O36       2.09897      .   S
    Zn2    O26       2.06889  1_554   S
    Zn3    O47       2.07164  1_655   S
    Zn3    O40       2.09905  1_655   S
    Zn3    O54       2.06901  1_554   S
    C20    O47       1.26856      .   S
    C14    O35       1.26880      .   S
    O41    C17       1.27029      .   S
    O37    C15       1.27031      .   S
    C17    O40       1.28628      .   S
    C15    O36       1.28651      .   S
    O32    C13       1.28848      .   S
    O32    Zn1       2.06865      .   S
    O44    C19       1.28853      .   S
    O44    Zn4       2.06875  1_655   S
    C13    O33       1.26724      .   S
    C19    O45       1.26726      .   S
    O39    C16       1.27010      .   S
    O39    Zn1       2.07367      .   S
    O43    C18       1.27015      .   S
    O43    Zn4       2.07320  1_665   S
    C16    O38       1.27946      .   S
    C18    O42       1.27955      .   S
    Zn4    O50       2.06234      .   S
    Zn1    O30       2.06197      .   S
    O38    Zn7       2.06201      .   S
    O42    Zn6       2.06192      .   S
    O30    C12       1.27958      .   S
    O50    C22       1.27955      .   S
    Zn7    O31       2.07379      .   S
    Zn7    O24       2.06834      .   S
    Zn6    O51       2.07338  1_665   S
    Zn6    O52       2.06917  1_655   S
    C12    O31       1.27003      .   S
    C22    O51       1.27014      .   S
    O53    C8        1.26614      .   S
    O25    C9        1.26650      .   S
    C8     O52       1.28720      .   S
    C9     O24       1.28869      .   S
    O28    C11       1.28653      .   S
    O28    Zn0       2.09878      .   S
    O48    C21       1.28650      .   S
    O48    Zn5       2.09906  1_655   S
    C11    O29       1.27035      .   S
    C21    O49       1.27040      .   S
    O27    C10       1.26914      .   S
    O27    Zn0       2.07203  1_545   S
    O55    C23       1.26891      .   S
    O55    Zn5       2.07204  1_655   S
    C10    O26       1.28046      .   S
    C23    O54       1.28042      .   S
    Zn0    Ts56      0.73107      .   S
    Zn0    Ts57      0.72499      .   S
    Zn1    Ts58      0.73024      .   S
    Zn1    Ts59      0.72362      .   S
    Zn2    Ts60      0.73099      .   S
    Zn2    Ts61      0.72496      .   S
    Zn3    Ts62      0.73114      .   S
    Zn3    Ts63      0.72494  1_655   S
    Zn4    Ts64      0.73121      .   S
    Zn4    Ts65      0.72263  1_455   S
    Zn5    Ts66      0.73112      .   S
    Zn5    Ts67      0.72496  1_455   S
    Zn6    Ts68      0.73125      .   S
    Zn6    Ts69      0.72258  1_655   S
    Zn7    Ts70      0.73020      .   S
    Zn7    Ts71      0.72365      .   S
    C8     Og72      0.49603      .   S
    C9     Og73      0.49614      .   S
    C10    Og74      0.49625      .   S
    C11    Og75      0.49574      .   S
    C12    Og76      0.49625      .   S
    C13    Og77      0.49598      .   S
    C14    Og78      0.49629      .   S
    C15    Og79      0.49572      .   S
    C16    Og80      0.49628      .   S
    C17    Og81      0.49547      .   S
    C18    Og82      0.49626      .   S
    C19    Og83      0.49603      .   S
    C20    Og84      0.49635      .   S
    C21    Og85      0.49592      .   S
    C22    Og86      0.49626      .   S
    C23    Og87      0.49628      .   S
