# CIF file generated by openbabel 2.4.90, see http://openbabel.sf.net
data_I
_chemical_name_common ''
_cell_length_a 13.544
_cell_length_b 14.801
_cell_length_c 21.599
_cell_angle_alpha 89.493
_cell_angle_beta 89.904
_cell_angle_gamma 90.087
_space_group_name_H-M_alt 'P 1'
_space_group_name_Hall 'P 1'
loop_
    _symmetry_equiv_pos_as_xyz
    x,y,z
loop_
    _atom_site_label
    _atom_site_type_symbol
    _atom_site_fract_x
    _atom_site_fract_y
    _atom_site_fract_z
    _atom_site_occupancy
    C0      C    0.00000   0.75238   0.64342   1.000
    C1      C    0.49519   0.25284   0.64350   1.000
    C2      C    0.51032   0.11288   0.92137   1.000
    C3      C    0.50266   0.75876   0.85442   1.000
    C4      C    0.48971   0.61061   0.58018   1.000
    C5      C    0.50488   0.74746   0.35647   1.000
    C6      C    0.48969   0.88711   0.07857   1.000
    C7      C    0.49737   0.24124   0.14554   1.000
    C8      C    0.51031   0.38944   0.41978   1.000
    C9      C    0.00000   0.74126   0.14554   1.000
    C10     C    0.98970   0.88945   0.41979   1.000
    C11     C    0.99538   0.24762   0.35655   1.000
    C12     C    0.00989   0.38711   0.07857   1.000
    C13     C    0.99744   0.25874   0.85444   1.000
    C14     C    0.01032   0.11055   0.58019   1.000
    C15     C    0.99014   0.61289   0.92140   1.000
