# CIF file generated by openbabel 2.4.90, see http://openbabel.sf.net
data_I
_chemical_name_common ''
_cell_length_a 13.544
_cell_length_b 14.801
_cell_length_c 21.599
_cell_angle_alpha 89.493
_cell_angle_beta 89.904
_cell_angle_gamma 90.087
_space_group_name_H-M_alt 'P 1'
_space_group_name_Hall 'P 1'
loop_
    _symmetry_equiv_pos_as_xyz
    x,y,z
loop_
    _atom_site_label
    _atom_site_type_symbol
    _atom_site_fract_x
    _atom_site_fract_y
    _atom_site_fract_z
    _atom_site_occupancy
    C0      C    0.50017   0.39451   0.56548   1.000
    C1      C    0.49973   0.89397   0.93348   1.000
    C2      C    0.49987   0.60553   0.43447   1.000
    C3      C    0.50031   0.10603   0.06648   1.000
    C4      C    0.99973   0.60604   0.06649   1.000
    C5      C    0.00035   0.10554   0.43446   1.000
    C6      C    0.00031   0.39396   0.93349   1.000
    C7      C    0.99968   0.89446   0.56550   1.000
    C8      C    0.65877   0.47763   0.64870   1.000
    C9      C    0.83666   0.52231   0.64285   1.000
    C10     C    0.85864   0.36153   0.47709   1.000
    C11     C    0.67988   0.32924   0.48831   1.000
    C12     C    0.99253   0.51837   0.58837   1.000
    C13     C    0.31909   0.46976   0.63434   1.000
    C14     C    0.13980   0.49382   0.61555   1.000
    C15     C    0.16651   0.32292   0.45561   1.000
    C16     C    0.34650   0.30740   0.48080   1.000
    C17     C    0.00648   0.37287   0.48756   1.000
    C18     C    0.48968   0.11832   0.68674   1.000
    C19     C    0.50893   0.28869   0.76658   1.000
    C20     C    0.49977   0.08169   0.79921   1.000
    C21     C    0.51611   0.25000   0.88164   1.000
    C22     C    0.34080   0.98055   0.85040   1.000
    C23     C    0.16345   0.02598   0.85709   1.000
    C24     C    0.14184   0.86132   0.02305   1.000
    C25     C    0.32018   0.82840   0.01105   1.000
    C26     C    0.00769   0.02005   0.91150   1.000
    C27     C    0.68193   0.97174   0.86451   1.000
    C28     C    0.86086   0.99620   0.88410   1.000
    C29     C    0.83255   0.82190   0.04438   1.000
    C30     C    0.65298   0.80605   0.01829   1.000
    C31     C    0.99316   0.87238   0.01259   1.000
    C32     C    0.50783   0.62302   0.81480   1.000
    C33     C    0.49090   0.79092   0.73035   1.000
    C34     C    0.49956   0.58297   0.70329   1.000
    C35     C    0.48401   0.74868   0.61641   1.000
    C36     C    0.34126   0.52235   0.35128   1.000
    C37     C    0.16337   0.47767   0.35713   1.000
    C38     C    0.14139   0.63851   0.52286   1.000
    C39     C    0.32015   0.67079   0.51164   1.000
    C40     C    0.00749   0.48165   0.41160   1.000
    C41     C    0.68095   0.53031   0.36563   1.000
    C42     C    0.86023   0.50624   0.38441   1.000
    C43     C    0.83351   0.67709   0.54438   1.000
    C44     C    0.65352   0.69261   0.51919   1.000
    C45     C    0.99355   0.62714   0.51242   1.000
    C46     C    0.51039   0.88198   0.31319   1.000
    C47     C    0.49109   0.71148   0.23350   1.000
    C48     C    0.50025   0.91841   0.20066   1.000
    C49     C    0.48390   0.74999   0.11834   1.000
    C50     C    0.65921   0.01945   0.14951   1.000
    C51     C    0.83657   0.97404   0.14288   1.000
    C52     C    0.85819   0.13870   0.97692   1.000
    C53     C    0.67985   0.17161   0.98891   1.000
    C54     C    0.99233   0.97997   0.08840   1.000
    C55     C    0.31811   0.02827   0.13540   1.000
    C56     C    0.13918   0.00382   0.11580   1.000
    C57     C    0.16748   0.17811   0.95559   1.000
    C58     C    0.34706   0.19395   0.98167   1.000
    C59     C    0.00688   0.12765   0.98739   1.000
    C60     C    0.49220   0.37698   0.18515   1.000
    C61     C    0.50909   0.20911   0.26962   1.000
    C62     C    0.50046   0.41706   0.29664   1.000
    C63     C    0.51598   0.25138   0.38354   1.000
    C64     C    0.84005   0.51906   0.14955   1.000
    C65     C    0.66256   0.47373   0.14287   1.000
    C66     C    0.64251   0.63870   0.97705   1.000
    C67     C    0.82086   0.67165   0.98914   1.000
    C68     C    0.50711   0.47982   0.08838   1.000
    C69     C    0.18123   0.52842   0.13547   1.000
    C70     C    0.36019   0.50388   0.11593   1.000
    C71     C    0.33353   0.67809   0.95560   1.000
    C72     C    0.15379   0.69389   0.98157   1.000
    C73     C    0.49371   0.62766   0.98740   1.000
    C74     C    0.00000   0.87703   0.18513   1.000
    C75     C    0.99086   0.70911   0.26964   1.000
    C76     C    0.99947   0.91710   0.29663   1.000
    C77     C    0.98396   0.75138   0.38358   1.000
    C78     C    0.15949   0.02229   0.35134   1.000
    C79     C    0.33719   0.97768   0.35728   1.000
    C80     C    0.35860   0.13856   0.52299   1.000
    C81     C    0.18004   0.17084   0.51167   1.000
    C82     C    0.49285   0.98210   0.41161   1.000
    C83     C    0.81955   0.03045   0.36568   1.000
    C84     C    0.64006   0.00655   0.38448   1.000
    C85     C    0.66672   0.17732   0.54447   1.000
    C86     C    0.84691   0.19273   0.51923   1.000
    C87     C    0.50664   0.12716   0.51271   1.000
    C88     C    0.98973   0.38215   0.31328   1.000
    C89     C    0.00882   0.21165   0.23359   1.000
    C90     C    0.99963   0.41853   0.20066   1.000
    C91     C    0.01554   0.25003   0.11838   1.000
    C92     C    0.15998   0.48095   0.85043   1.000
    C93     C    0.33746   0.52629   0.85711   1.000
    C94     C    0.35753   0.36132   0.02290   1.000
    C95     C    0.17918   0.32836   0.01084   1.000
    C96     C    0.49292   0.52019   0.91159   1.000
    C97     C    0.81880   0.47159   0.86451   1.000
    C98     C    0.63985   0.49613   0.88404   1.000
    C99     C    0.66650   0.32193   0.04438   1.000
    C100    C    0.84624   0.30612   0.01841   1.000
    C101    C    0.50632   0.37235   0.01250   1.000
    C102    C    0.99239   0.12297   0.81485   1.000
    C103    C    0.00914   0.29089   0.73034   1.000
    C104    C    0.00055   0.08291   0.70335   1.000
    C105    C    0.01602   0.24863   0.61640   1.000
    C106    C    0.84058   0.97774   0.64864   1.000
    C107    C    0.66288   0.02237   0.64270   1.000
    C108    C    0.64139   0.86150   0.47700   1.000
    C109    C    0.81995   0.82918   0.48831   1.000
    C110    C    0.50719   0.01796   0.58842   1.000
    C111    C    0.18044   0.96953   0.63433   1.000
    C112    C    0.35993   0.99346   0.61556   1.000
    C113    C    0.33334   0.82279   0.45551   1.000
    C114    C    0.15315   0.80733   0.48073   1.000
    C115    C    0.49339   0.87293   0.48730   1.000
    C116    C    0.00000   0.61785   0.68669   1.000
    C117    C    0.99119   0.78834   0.76638   1.000
    C118    C    0.00000   0.58147   0.79932   1.000
    C119    C    0.98445   0.74997   0.88160   1.000
    C120    C    0.70627   0.45367   0.61156   1.000
    C121    C    0.80551   0.47748   0.60812   1.000
    C122    C    0.86343   0.44796   0.55830   1.000
    C123    C    0.81822   0.38945   0.51621   1.000
    C124    C    0.71823   0.37029   0.52220   1.000
    C125    C    0.96265   0.48902   0.54585   1.000
    C126    C    0.28209   0.43795   0.59539   1.000
    C127    C    0.18166   0.45067   0.58448   1.000
    C128    C    0.13808   0.41226   0.53217   1.000
    C129    C    0.19802   0.35649   0.49575   1.000
    C130    C    0.29743   0.34756   0.50943   1.000
    C131    C    0.03781   0.43441   0.50749   1.000
    C132    C    0.49519   0.25284   0.64350   1.000
    C133    C    0.49549   0.19009   0.69773   1.000
    C134    C    0.50334   0.21630   0.75733   1.000
    C135    C    0.50459   0.15405   0.80899   1.000
    C136    C    0.51110   0.17888   0.86896   1.000
    C137    C    0.51032   0.11288   0.92137   1.000
    C138    C    0.29355   0.95594   0.88780   1.000
    C139    C    0.19455   0.98016   0.89173   1.000
    C140    C    0.13680   0.94951   0.94170   1.000
    C141    C    0.18209   0.89002   0.98374   1.000
    C142    C    0.28182   0.87045   0.97730   1.000
    C143    C    0.03759   0.99007   0.95422   1.000
    C144    C    0.71846   0.93927   0.90373   1.000
    C145    C    0.81875   0.95226   0.91513   1.000
    C146    C    0.86187   0.91283   0.96767   1.000
    C147    C    0.80152   0.85620   0.00400   1.000
    C148    C    0.70233   0.84699   0.98978   1.000
    C149    C    0.96213   0.93447   0.99260   1.000
    C150    C    0.50266   0.75876   0.85442   1.000
    C151    C    0.50274   0.69445   0.80190   1.000
    C152    C    0.49590   0.71884   0.74158   1.000
    C153    C    0.49492   0.65499   0.69159   1.000
    C154    C    0.48885   0.67797   0.63096   1.000
    C155    C    0.48971   0.61061   0.58018   1.000
    C156    C    0.29376   0.54632   0.38841   1.000
    C157    C    0.19452   0.52252   0.39186   1.000
    C158    C    0.13659   0.55206   0.44164   1.000
    C159    C    0.18181   0.61057   0.48370   1.000
    C160    C    0.28180   0.62974   0.47775   1.000
    C161    C    0.03738   0.51100   0.45412   1.000
    C162    C    0.71794   0.56211   0.40458   1.000
    C163    C    0.81837   0.54938   0.41549   1.000
    C164    C    0.86195   0.58777   0.46781   1.000
    C165    C    0.80201   0.64352   0.50423   1.000
    C166    C    0.70260   0.65247   0.49055   1.000
    C167    C    0.96222   0.56561   0.49248   1.000
    C168    C    0.50488   0.74746   0.35647   1.000
    C169    C    0.50457   0.81019   0.30226   1.000
    C170    C    0.49669   0.78388   0.24268   1.000
    C171    C    0.49542   0.84603   0.19096   1.000
    C172    C    0.48892   0.82112   0.13100   1.000
    C173    C    0.48969   0.88711   0.07857   1.000
    C174    C    0.70647   0.04407   0.11211   1.000
    C175    C    0.80546   0.01985   0.10824   1.000
    C176    C    0.86323   0.05051   0.05828   1.000
    C177    C    0.81794   0.11000   0.01623   1.000
    C178    C    0.71820   0.12957   0.02267   1.000
    C179    C    0.96244   0.00996   0.04576   1.000
    C180    C    0.28158   0.06074   0.09624   1.000
    C181    C    0.18129   0.04776   0.08485   1.000
    C182    C    0.13816   0.08718   0.03230   1.000
    C183    C    0.19852   0.14381   0.99598   1.000
    C184    C    0.29770   0.15302   0.01019   1.000
    C185    C    0.03790   0.06555   0.00730   1.000
    C186    C    0.49737   0.24124   0.14554   1.000
    C187    C    0.49729   0.30556   0.19805   1.000
    C188    C    0.50411   0.28118   0.25838   1.000
    C189    C    0.50509   0.34505   0.30836   1.000
    C190    C    0.51116   0.32208   0.36899   1.000
    C191    C    0.51031   0.38944   0.41978   1.000
    C192    C    0.79309   0.54379   0.11218   1.000
    C193    C    0.69402   0.51962   0.10828   1.000
    C194    C    0.63665   0.55036   0.05833   1.000
    C195    C    0.68239   0.60995   0.01636   1.000
    C196    C    0.78215   0.62951   0.02284   1.000
    C197    C    0.53736   0.50987   0.04577   1.000
    C198    C    0.21811   0.56083   0.09624   1.000
    C199    C    0.31842   0.54780   0.08487   1.000
    C200    C    0.36199   0.58721   0.03230   1.000
    C201    C    0.30209   0.64381   0.99597   1.000
    C202    C    0.20281   0.65301   0.01014   1.000
    C203    C    0.46231   0.56555   0.00743   1.000
    C204    C    0.00000   0.74126   0.14554   1.000
    C205    C    0.00000   0.80559   0.19800   1.000
    C206    C    0.99582   0.78120   0.25839   1.000
    C207    C    0.99485   0.84507   0.30837   1.000
    C208    C    0.98881   0.82209   0.36901   1.000
    C209    C    0.98970   0.88945   0.41979   1.000
    C210    C    0.20680   0.04631   0.38850   1.000
    C211    C    0.30595   0.02252   0.39199   1.000
    C212    C    0.36367   0.05210   0.44179   1.000
    C213    C    0.31834   0.11059   0.48387   1.000
    C214    C    0.21845   0.12975   0.47780   1.000
    C215    C    0.46278   0.01118   0.45420   1.000
    C216    C    0.78249   0.06228   0.40463   1.000
    C217    C    0.68195   0.04965   0.41555   1.000
    C218    C    0.63830   0.08804   0.46789   1.000
    C219    C    0.69827   0.14375   0.50431   1.000
    C220    C    0.79778   0.15263   0.49062   1.000
    C221    C    0.53790   0.06574   0.49260   1.000
    C222    C    0.99538   0.24762   0.35655   1.000
    C223    C    0.99556   0.31037   0.30234   1.000
    C224    C    0.00324   0.28405   0.24270   1.000
    C225    C    0.00435   0.34614   0.19099   1.000
    C226    C    0.01066   0.32116   0.13103   1.000
    C227    C    0.00989   0.38711   0.07857   1.000
    C228    C    0.20694   0.45622   0.88780   1.000
    C229    C    0.30601   0.48040   0.89170   1.000
    C230    C    0.36338   0.44965   0.94164   1.000
    C231    C    0.31764   0.39006   0.98362   1.000
    C232    C    0.21788   0.37050   0.97714   1.000
    C233    C    0.46267   0.49015   0.95420   1.000
    C234    C    0.78192   0.43918   0.90373   1.000
    C235    C    0.68162   0.45221   0.91510   1.000
    C236    C    0.63804   0.41281   0.96764   1.000
    C237    C    0.69794   0.35621   0.00401   1.000
    C238    C    0.79722   0.34700   0.98984   1.000
    C239    C    0.53772   0.43446   0.99254   1.000
    C240    C    0.99744   0.25874   0.85444   1.000
    C241    C    0.99742   0.19442   0.80190   1.000
    C242    C    0.00419   0.21881   0.74159   1.000
    C243    C    0.00517   0.15493   0.69161   1.000
    C244    C    0.01120   0.17791   0.63097   1.000
    C245    C    0.01032   0.11055   0.58019   1.000
    C246    C    0.79325   0.95373   0.61149   1.000
    C247    C    0.69410   0.97754   0.60800   1.000
    C248    C    0.63636   0.94796   0.55822   1.000
    C249    C    0.68166   0.88947   0.51610   1.000
    C250    C    0.78155   0.87028   0.52217   1.000
    C251    C    0.53725   0.98889   0.54582   1.000
    C252    C    0.21752   0.93773   0.59537   1.000
    C253    C    0.31805   0.95038   0.58446   1.000
    C254    C    0.36173   0.91203   0.53212   1.000
    C255    C    0.30177   0.85632   0.49568   1.000
    C256    C    0.20226   0.84742   0.50936   1.000
    C257    C    0.46212   0.93434   0.50740   1.000
    C258    C    0.00000   0.75238   0.64342   1.000
    C259    C    0.00000   0.68962   0.69763   1.000
    C260    C    0.99678   0.71595   0.75723   1.000
    C261    C    0.99567   0.65386   0.80899   1.000
    C262    C    0.98936   0.67884   0.86895   1.000
    C263    C    0.99014   0.61289   0.92140   1.000
    C264    C    0.66158   0.40326   0.56804   1.000
    C265    C    0.34049   0.38972   0.55750   1.000
    C266    C    0.33823   0.90403   0.93109   1.000
    C267    C    0.65973   0.88977   0.94131   1.000
    C268    C    0.33845   0.59675   0.43192   1.000
    C269    C    0.65954   0.61032   0.44246   1.000
    C270    C    0.66178   0.09597   0.06887   1.000
    C271    C    0.34031   0.11023   0.05865   1.000
    C272    C    0.83819   0.59581   0.06900   1.000
    C273    C    0.15978   0.61028   0.05861   1.000
    C274    C    0.16197   0.09678   0.43196   1.000
    C275    C    0.84088   0.11042   0.44253   1.000
    C276    C    0.16184   0.40421   0.93097   1.000
    C277    C    0.84025   0.38973   0.94137   1.000
    C278    C    0.83806   0.90324   0.56802   1.000
    C279    C    0.15914   0.88960   0.55746   1.000
    C280    C    0.49919   0.33846   0.65354   1.000
    C281    C    0.49181   0.21910   0.58986   1.000
    C282    C    0.51192   0.14837   0.97521   1.000
    C283    C    0.50806   0.02933   0.90870   1.000
    C284    C    0.50058   0.84414   0.84281   1.000
    C285    C    0.50404   0.72646   0.90910   1.000
    C286    C    0.48800   0.64472   0.52555   1.000
    C287    C    0.49212   0.52734   0.59480   1.000
    C288    C    0.50086   0.66184   0.34647   1.000
    C289    C    0.50831   0.78115   0.41016   1.000
    C290    C    0.48811   0.85161   0.02474   1.000
    C291    C    0.49198   0.97065   0.09116   1.000
    C292    C    0.49945   0.15586   0.15716   1.000
    C293    C    0.49600   0.27353   0.09086   1.000
    C294    C    0.51201   0.35531   0.47440   1.000
    C295    C    0.50792   0.47271   0.40516   1.000
    C296    C    0.00047   0.65588   0.15717   1.000
    C297    C    0.00000   0.77354   0.09085   1.000
    C298    C    0.98799   0.85533   0.47442   1.000
    C299    C    0.99212   0.97274   0.40516   1.000
    C300    C    0.99967   0.16203   0.34651   1.000
    C301    C    0.99177   0.28124   0.41026   1.000
    C302    C    0.01142   0.35159   0.02470   1.000
    C303    C    0.00777   0.47066   0.09110   1.000
    C304    C    0.99956   0.34412   0.84281   1.000
    C305    C    0.99600   0.22646   0.90913   1.000
    C306    C    0.01204   0.14467   0.52556   1.000
    C307    C    0.00792   0.02727   0.59482   1.000
    C308    C    0.00036   0.83797   0.65347   1.000
    C309    C    0.00000   0.71876   0.58972   1.000
    C310    C    0.98861   0.64842   0.97523   1.000
    C311    C    0.99226   0.52935   0.90880   1.000
    O312    O    0.81703   0.83905   0.02419   1.000
    O313    O    0.83169   0.88452   0.98583   1.000
    O314    O    0.75193   0.85160   0.99689   1.000
    O315    O    0.68222   0.33907   0.02419   1.000
    O316    O    0.66799   0.38451   0.98582   1.000
    O317    O    0.74758   0.35161   0.99692   1.000
    O318    O    0.08803   0.07637   0.01980   1.000
    O319    O    0.00017   0.03775   0.02653   1.000
    O320    O    0.03775   0.02781   0.98076   1.000
    O321    O    0.02239   0.09660   0.99734   1.000
    O322    O    0.41215   0.57638   0.01986   1.000
    O323    O    0.49984   0.53771   0.02660   1.000
    O324    O    0.46249   0.52785   0.98081   1.000
    O325    O    0.47801   0.59660   0.99741   1.000
    O326    O    0.18130   0.63164   0.03437   1.000
    O327    O    0.17830   0.67345   0.99585   1.000
    O328    O    0.25245   0.64841   0.00305   1.000
    O329    O    0.31901   0.13162   0.03442   1.000
    O330    O    0.32238   0.17348   0.99593   1.000
    O331    O    0.24811   0.14841   0.00308   1.000
    O332    O    0.19853   0.34943   0.99399   1.000
    O333    O    0.30100   0.84942   0.99417   1.000
    O334    O    0.52202   0.40341   0.00252   1.000
    O335    O    0.97764   0.90342   0.00259   1.000
    O336    O    0.76807   0.11978   0.01945   1.000
    O337    O    0.84058   0.08026   0.03725   1.000
    O338    O    0.83806   0.12435   0.99657   1.000
    O339    O    0.73227   0.61973   0.01960   1.000
    O340    O    0.65952   0.58016   0.03734   1.000
    O341    O    0.66245   0.62432   0.99670   1.000
    O342    O    0.67766   0.82652   0.00403   1.000
    O343    O    0.82173   0.32656   0.00412   1.000
    O344    O    0.68999   0.11277   0.04577   1.000
    O345    O    0.69902   0.15059   0.00579   1.000
    O346    O    0.81017   0.61266   0.04592   1.000
    O347    O    0.80151   0.65058   0.00599   1.000
    O348    O    0.33759   0.37569   0.00326   1.000
    O349    O    0.16196   0.87567   0.00339   1.000
    O350    O    0.01065   0.36935   0.05163   1.000
    O351    O    0.00586   0.37278   0.97909   1.000
    O352    O    0.48890   0.86936   0.05165   1.000
    O353    O    0.49392   0.87279   0.97911   1.000
    O354    O    0.34020   0.56751   0.05858   1.000
    O355    O    0.33204   0.61551   0.01413   1.000
    O356    O    0.15973   0.06747   0.05857   1.000
    O357    O    0.16834   0.11550   0.01414   1.000
    O358    O    0.91283   0.03023   0.05202   1.000
    O359    O    0.97738   0.99497   0.06708   1.000
    O360    O    0.96228   0.97221   0.01918   1.000
    O361    O    0.58700   0.53012   0.05205   1.000
    O362    O    0.52223   0.49484   0.06707   1.000
    O363    O    0.53754   0.47217   0.01915   1.000
    O364    O    0.83435   0.03518   0.08326   1.000
    O365    O    0.66533   0.53499   0.08330   1.000
    O366    O    0.07976   0.60816   0.06255   1.000
    O367    O    0.18895   0.58556   0.07742   1.000
    O368    O    0.42031   0.10813   0.06256   1.000
    O369    O    0.31094   0.08549   0.07744   1.000
    O370    O    0.58105   0.10100   0.06767   1.000
    O371    O    0.49615   0.03834   0.07882   1.000
    O372    O    0.49988   0.13095   0.11182   1.000
    O373    O    0.50611   0.12720   0.02084   1.000
    O374    O    0.91896   0.60092   0.06774   1.000
    O375    O    0.00375   0.53835   0.07879   1.000
    O376    O    0.00010   0.63096   0.11183   1.000
    O377    O    0.99417   0.62723   0.02086   1.000
    O378    O    0.68412   0.07002   0.09049   1.000
    O379    O    0.81564   0.56980   0.09059   1.000
    O380    O    0.00883   0.42889   0.08483   1.000
    O381    O    0.01027   0.35414   0.10480   1.000
    O382    O    0.49084   0.92888   0.08486   1.000
    O383    O    0.48930   0.85411   0.10478   1.000
    O384    O    0.23144   0.05425   0.09054   1.000
    O385    O    0.16024   0.02579   0.10032   1.000
    O386    O    0.26826   0.55432   0.09055   1.000
    O387    O    0.33930   0.52584   0.10040   1.000
    O388    O    0.00000   0.75740   0.11819   1.000
    O389    O    0.49668   0.25738   0.11820   1.000
    O390    O    0.19967   0.54462   0.11585   1.000
    O391    O    0.29985   0.04450   0.11582   1.000
    O392    O    0.75596   0.03196   0.11017   1.000
    O393    O    0.82102   0.99695   0.12556   1.000
    O394    O    0.74355   0.53170   0.11023   1.000
    O395    O    0.67829   0.49667   0.12557   1.000
    O396    O    0.68284   0.03176   0.13081   1.000
    O397    O    0.81657   0.53143   0.13086   1.000
    O398    O    0.48641   0.78555   0.12467   1.000
    O399    O    0.01310   0.28560   0.12470   1.000
    O400    O    0.49217   0.83358   0.16098   1.000
    O401    O    0.00750   0.33365   0.16101   1.000
    O402    O    0.00024   0.69857   0.15135   1.000
    O403    O    0.00000   0.77343   0.17177   1.000
    O404    O    0.49841   0.19855   0.15135   1.000
    O405    O    0.49733   0.27340   0.17179   1.000
    O406    O    0.00000   0.84131   0.19156   1.000
    O407    O    0.49475   0.34127   0.19160   1.000
    O408    O    0.49783   0.88222   0.19581   1.000
    O409    O    0.49606   0.81496   0.21682   1.000
    O410    O    0.00199   0.38233   0.19582   1.000
    O411    O    0.00380   0.31509   0.21684   1.000
    O412    O    0.99791   0.79339   0.22819   1.000
    O413    O    0.50070   0.29337   0.22821   1.000
    O414    O    0.49389   0.74768   0.23809   1.000
    O415    O    0.00603   0.24785   0.23814   1.000
    O416    O    0.50063   0.79704   0.27247   1.000
    O417    O    0.99940   0.29721   0.27252   1.000
    O418    O    0.50660   0.24515   0.26400   1.000
    O419    O    0.50460   0.31312   0.28337   1.000
    O420    O    0.99334   0.74516   0.26401   1.000
    O421    O    0.99533   0.81314   0.28338   1.000
    O422    O    0.99716   0.88108   0.30250   1.000
    O423    O    0.50277   0.38106   0.30250   1.000
    O424    O    0.50748   0.84609   0.30772   1.000
    O425    O    0.50473   0.77883   0.32936   1.000
    O426    O    0.99264   0.34626   0.30781   1.000
    O427    O    0.99547   0.27900   0.32944   1.000
    O428    O    0.50812   0.33357   0.33867   1.000
    O429    O    0.99183   0.83358   0.33869   1.000
    O430    O    0.50287   0.70465   0.35147   1.000
    O431    O    0.50036   0.63369   0.39047   1.000
    O432    O    0.99753   0.20482   0.35153   1.000
    O433    O    0.00001   0.13378   0.39048   1.000
    O434    O    0.31751   0.53433   0.36984   1.000
    O435    O    0.18314   0.03430   0.36992   1.000
    O436    O    0.50660   0.76430   0.38331   1.000
    O437    O    0.99358   0.26443   0.38340   1.000
    O438    O    0.17894   0.50009   0.37449   1.000
    O439    O    0.32157   0.00010   0.37463   1.000
    O440    O    0.69944   0.54621   0.38510   1.000
    O441    O    0.80102   0.04636   0.38515   1.000
    O442    O    0.51357   0.28673   0.37626   1.000
    O443    O    0.51073   0.35576   0.39438   1.000
    O444    O    0.98638   0.78674   0.37629   1.000
    O445    O    0.98926   0.85577   0.39440   1.000
    O446    O    0.83930   0.52781   0.39995   1.000
    O447    O    0.66101   0.02810   0.40001   1.000
    O448    O    0.24414   0.53442   0.39013   1.000
    O449    O    0.31611   0.57154   0.41016   1.000
    O450    O    0.25637   0.03441   0.39024   1.000
    O451    O    0.18439   0.07154   0.41023   1.000
    O452    O    0.16556   0.53729   0.41675   1.000
    O453    O    0.33481   0.03731   0.41689   1.000
    O454    O    0.76815   0.55575   0.41003   1.000
    O455    O    0.68874   0.58622   0.42352   1.000
    O456    O    0.73222   0.05596   0.41009   1.000
    O457    O    0.81169   0.08635   0.42358   1.000
    O458    O    0.50911   0.43107   0.41247   1.000
    O459    O    0.50389   0.53912   0.41981   1.000
    O460    O    0.99091   0.93110   0.41247   1.000
    O461    O    0.99623   0.03914   0.41981   1.000
    O462    O    0.02243   0.49633   0.43286   1.000
    O463    O    0.47782   0.99664   0.43290   1.000
    O464    O    0.84016   0.56858   0.44165   1.000
    O465    O    0.66012   0.06884   0.44172   1.000
    O466    O    0.51116   0.37237   0.44709   1.000
    O467    O    0.98885   0.87239   0.44710   1.000
    O468    O    0.41916   0.60114   0.43319   1.000
    O469    O    0.31013   0.61324   0.45483   1.000
    O470    O    0.08116   0.10116   0.43321   1.000
    O471    O    0.19021   0.11327   0.45488   1.000
    O472    O    0.92062   0.10798   0.43849   1.000
    O473    O    0.00619   0.12511   0.48001   1.000
    O474    O    0.57970   0.60793   0.43846   1.000
    O475    O    0.49394   0.62513   0.48001   1.000
    O476    O    0.08699   0.53153   0.44788   1.000
    O477    O    0.15920   0.58132   0.46267   1.000
    O478    O    0.41323   0.03164   0.44799   1.000
    O479    O    0.34101   0.08134   0.46283   1.000
    O480    O    0.68107   0.63140   0.46650   1.000
    O481    O    0.81933   0.13152   0.46657   1.000
    O482    O    0.99980   0.53830   0.47330   1.000
    O483    O    0.03760   0.47271   0.48080   1.000
    O484    O    0.50034   0.03846   0.47340   1.000
    O485    O    0.46245   0.97276   0.48080   1.000
    O486    O    0.31756   0.83956   0.47559   1.000
    O487    O    0.18227   0.33971   0.47568   1.000
    O488    O    0.91208   0.57669   0.48014   1.000
    O489    O    0.83198   0.61565   0.48602   1.000
    O490    O    0.58810   0.07689   0.48024   1.000
    O491    O    0.66828   0.11589   0.48610   1.000
    O492    O    0.50609   0.37491   0.51994   1.000
    O493    O    0.99384   0.87490   0.51996   1.000
    O494    O    0.66153   0.87549   0.49655   1.000
    O495    O    0.83843   0.37549   0.49665   1.000
    O496    O    0.23181   0.62015   0.48072   1.000
    O497    O    0.30098   0.65026   0.49469   1.000
    O498    O    0.26840   0.12017   0.48083   1.000
    O499    O    0.19925   0.15030   0.49473   1.000
    O500    O    0.17770   0.82738   0.49504   1.000
    O501    O    0.32196   0.32748   0.49511   1.000
    O502    O    0.16160   0.62454   0.50328   1.000
    O503    O    0.33847   0.12457   0.50343   1.000
    O504    O    0.47776   0.90364   0.49735   1.000
    O505    O    0.02215   0.40364   0.49752   1.000
    O506    O    0.80075   0.84973   0.50524   1.000
    O507    O    0.69905   0.34977   0.50525   1.000
    O508    O    0.75231   0.64799   0.49739   1.000
    O509    O    0.67806   0.67254   0.50487   1.000
    O510    O    0.74803   0.14819   0.49746   1.000
    O511    O    0.82235   0.17268   0.50492   1.000
    O512    O    0.97788   0.59638   0.50245   1.000
    O513    O    0.96243   0.52731   0.51916   1.000
    O514    O    0.52227   0.09645   0.50265   1.000
    O515    O    0.53757   0.02732   0.51921   1.000
    O516    O    0.25202   0.85187   0.50252   1.000
    O517    O    0.33175   0.88417   0.51390   1.000
    O518    O    0.24772   0.35203   0.50259   1.000
    O519    O    0.16805   0.38438   0.51396   1.000
    O520    O    0.81776   0.66030   0.52430   1.000
    O521    O    0.68249   0.16054   0.52439   1.000
    O522    O    0.41193   0.92318   0.51976   1.000
    O523    O    0.49969   0.96162   0.52661   1.000
    O524    O    0.08795   0.42334   0.51983   1.000
    O525    O    0.00023   0.46172   0.52667   1.000
    O526    O    0.18070   0.86851   0.53341   1.000
    O527    O    0.31896   0.36864   0.53346   1.000
    O528    O    0.73161   0.87988   0.51913   1.000
    O529    O    0.65901   0.91872   0.53716   1.000
    O530    O    0.76822   0.37987   0.51920   1.000
    O531    O    0.84083   0.41871   0.53725   1.000
    O532    O    0.80980   0.88676   0.54509   1.000
    O533    O    0.68991   0.38678   0.54512   1.000
    O534    O    0.48886   0.62767   0.55286   1.000
    O535    O    0.01118   0.12761   0.55287   1.000
    O536    O    0.33989   0.93120   0.55829   1.000
    O537    O    0.15987   0.43146   0.55832   1.000
    O538    O    0.58680   0.96843   0.55202   1.000
    O539    O    0.52222   0.00343   0.56712   1.000
    O540    O    0.91304   0.46849   0.55207   1.000
    O541    O    0.97759   0.50369   0.56711   1.000
    O542    O    0.07941   0.89203   0.56148   1.000
    O543    O    0.18833   0.91366   0.57641   1.000
    O544    O    0.42033   0.39212   0.56149   1.000
    O545    O    0.31129   0.41383   0.57644   1.000
    O546    O    0.66523   0.96275   0.58311   1.000
    O547    O    0.83447   0.46272   0.58321   1.000
    O548    O    0.58087   0.39889   0.56676   1.000
    O549    O    0.49614   0.46093   0.58014   1.000
    O550    O    0.49968   0.36649   0.60951   1.000
    O551    O    0.91887   0.89885   0.56676   1.000
    O552    O    0.00380   0.96087   0.58016   1.000
    O553    O    0.00002   0.86622   0.60948   1.000
    O554    O    0.81565   0.92848   0.58975   1.000
    O555    O    0.68392   0.42847   0.58980   1.000
    O556    O    0.49092   0.56898   0.58749   1.000
    O557    O    0.48928   0.64429   0.60557   1.000
    O558    O    0.00912   0.06891   0.58750   1.000
    O559    O    0.01076   0.14423   0.60558   1.000
    O560    O    0.26779   0.94405   0.58991   1.000
    O561    O    0.33899   0.97192   0.60001   1.000
    O562    O    0.23188   0.44431   0.58993   1.000
    O563    O    0.16073   0.47224   0.60001   1.000
    O564    O    0.00000   0.73557   0.61657   1.000
    O565    O    0.49350   0.23597   0.61668   1.000
    O566    O    0.19898   0.95363   0.61485   1.000
    O567    O    0.30059   0.45385   0.61486   1.000
    O568    O    0.74368   0.96563   0.60974   1.000
    O569    O    0.67849   0.99995   0.62535   1.000
    O570    O    0.75589   0.46558   0.60984   1.000
    O571    O    0.82109   0.49990   0.62548   1.000
    O572    O    0.81691   0.96573   0.63006   1.000
    O573    O    0.68252   0.46565   0.63013   1.000
    O574    O    0.01361   0.21327   0.62368   1.000
    O575    O    0.48643   0.71332   0.62368   1.000
    O576    O    0.49188   0.66648   0.66127   1.000
    O577    O    0.00818   0.16642   0.66129   1.000
    O578    O    0.00018   0.79517   0.64844   1.000
    O579    O    0.00000   0.72100   0.67052   1.000
    O580    O    0.49719   0.29565   0.64852   1.000
    O581    O    0.49534   0.22146   0.67061   1.000
    O582    O    0.00000   0.65374   0.69216   1.000
    O583    O    0.49258   0.15421   0.69223   1.000
    O584    O    0.49724   0.61898   0.69744   1.000
    O585    O    0.49541   0.68692   0.71658   1.000
    O586    O    0.00286   0.11892   0.69748   1.000
    O587    O    0.00468   0.18687   0.71660   1.000
    O588    O    0.99839   0.70278   0.72743   1.000
    O589    O    0.49941   0.20320   0.72753   1.000
    O590    O    0.00667   0.25485   0.73596   1.000
    O591    O    0.49340   0.75488   0.73596   1.000
    O592    O    0.49932   0.70665   0.77174   1.000
    O593    O    0.00081   0.20661   0.77174   1.000
    O594    O    0.99398   0.75215   0.76180   1.000
    O595    O    0.99622   0.68490   0.78311   1.000
    O596    O    0.50614   0.25249   0.76195   1.000
    O597    O    0.50396   0.18518   0.78316   1.000
    O598    O    0.50218   0.11787   0.80410   1.000
    O599    O    0.99784   0.61766   0.80415   1.000
    O600    O    0.99491   0.15869   0.80837   1.000
    O601    O    0.99743   0.22658   0.82817   1.000
    O602    O    0.50529   0.65874   0.80835   1.000
    O603    O    0.50270   0.72661   0.82816   1.000
    O604    O    0.99252   0.66635   0.83897   1.000
    O605    O    0.50785   0.16647   0.83897   1.000
    O606    O    0.50162   0.80145   0.84861   1.000
    O607    O    0.50015   0.86906   0.88814   1.000
    O608    O    0.99850   0.30143   0.84862   1.000
    O609    O    0.99993   0.36904   0.88815   1.000
    O610    O    0.31718   0.96825   0.86910   1.000
    O611    O    0.18346   0.46859   0.86911   1.000
    O612    O    0.50335   0.74261   0.88176   1.000
    O613    O    0.99672   0.24260   0.88178   1.000
    O614    O    0.17900   0.00307   0.87441   1.000
    O615    O    0.32174   0.50334   0.87440   1.000
    O616    O    0.80036   0.45538   0.88412   1.000
    O617    O    0.70020   0.95551   0.88412   1.000
    O618    O    0.98691   0.71441   0.87527   1.000
    O619    O    0.98975   0.64587   0.89517   1.000
    O620    O    0.51361   0.21444   0.87530   1.000
    O621    O    0.51071   0.14588   0.89516   1.000
    O622    O    0.66073   0.47417   0.89957   1.000
    O623    O    0.83980   0.97423   0.89961   1.000
    O624    O    0.25648   0.46831   0.88975   1.000
    O625    O    0.18439   0.43021   0.90938   1.000
    O626    O    0.24405   0.96805   0.88976   1.000
    O627    O    0.31589   0.92998   0.90944   1.000
    O628    O    0.33470   0.46502   0.91667   1.000
    O629    O    0.16568   0.96484   0.91671   1.000
    O630    O    0.73177   0.44569   0.90941   1.000
    O631    O    0.81109   0.41445   0.92255   1.000
    O632    O    0.76861   0.94577   0.90943   1.000
    O633    O    0.68910   0.91452   0.92252   1.000
    O634    O    0.50919   0.07110   0.91503   1.000
    O635    O    0.50389   0.96165   0.92109   1.000
    O636    O    0.99120   0.57112   0.91510   1.000
    O637    O    0.99629   0.46165   0.92114   1.000
    O638    O    0.02264   0.00506   0.93286   1.000
    O639    O    0.47780   0.50517   0.93289   1.000
    O640    O    0.65983   0.43251   0.94137   1.000
    O641    O    0.84031   0.93255   0.94140   1.000
    O642    O    0.51112   0.13062   0.94829   1.000
    O643    O    0.98937   0.63066   0.94831   1.000
    O644    O    0.08107   0.39908   0.93223   1.000
    O645    O    0.18986   0.38736   0.95405   1.000
    O646    O    0.41898   0.89900   0.93228   1.000
    O647    O    0.31003   0.88724   0.95419   1.000
    O648    O    0.57973   0.89187   0.93739   1.000
    O649    O    0.92028   0.39185   0.93743   1.000
    O650    O    0.68103   0.86838   0.96554   1.000
    O651    O    0.81874   0.36837   0.96560   1.000
    O652    O    0.41303   0.46990   0.94792   1.000
    O653    O    0.34051   0.41986   0.96263   1.000
    O654    O    0.08719   0.96979   0.94796   1.000
    O655    O    0.15944   0.91976   0.96272   1.000
    O656    O    0.50020   0.46231   0.97337   1.000
    O657    O    0.99986   0.96227   0.97341   1.000
    O658    O    0.18300   0.16096   0.97578   1.000
    O659    O    0.31781   0.66095   0.97578   1.000
    O660    O    0.58788   0.42364   0.98009   1.000
    O661    O    0.91200   0.92365   0.98013   1.000
    O662    O    0.26776   0.38028   0.98038   1.000
    O663    O    0.23196   0.88023   0.98052   1.000
loop_
    _geom_bond_atom_site_label_1
    _geom_bond_atom_site_label_2
    _geom_bond_distance
    _geom_bond_site_symmetry_2
    _ccdc_geom_bond_type
    C147   O312      0.54521      .   S
    C29    O312      0.54521      .   S
    C147   O313      0.70191  1_554   S
    C146   O313      0.70191      .   S
    C147   O314      0.69265  1_554   S
    C148   O314      0.69265      .   S
    C237   O315      0.54529      .   S
    C99    O315      0.54529      .   S
    C237   O316      0.70173  1_554   S
    C236   O316      0.70173      .   S
    C237   O317      0.69282  1_554   S
    C238   O317      0.69282      .   S
    C185   O318      0.74872      .   S
    C182   O318      0.74872      .   S
    C185   O319      0.77367      .   S
    C179   O319      0.77367  1_655   S
    C185   O320      0.80395  1_554   S
    C143   O320      0.80395  1_565   S
    C185   O321      0.54795  1_554   S
    C59    O321      0.54795      .   S
    C203   O322      0.74824      .   S
    C200   O322      0.74824      .   S
    C203   O323      0.77319      .   S
    C197   O323      0.77319      .   S
    C203   O324      0.80469  1_554   S
    C233   O324      0.80469      .   S
    C203   O325      0.54868  1_554   S
    C73    O325      0.54868      .   S
    C202   O326      0.67469      .   S
    C273   O326      0.67469      .   S
    C202   O327      0.54400  1_554   S
    C72    O327      0.54400      .   S
    C202   O328      0.69283      .   S
    C201   O328      0.69283  1_556   S
    C184   O329      0.67471      .   S
    C271   O329      0.67471      .   S
    C184   O330      0.54409  1_554   S
    C58    O330      0.54409      .   S
    C184   O331      0.69264      .   S
    C183   O331      0.69264  1_556   S
    C95    O332      0.54393  1_554   S
    C232   O332      0.54393      .   S
    C25    O333      0.54379  1_554   S
    C142   O333      0.54379      .   S
    C101   O334      0.54839      .   S
    C239   O334      0.54839  1_556   S
    C31    O335      0.54828      .   S
    C149   O335      0.54828  1_556   S
    C177   O336      0.69449      .   S
    C178   O336      0.69449      .   S
    C177   O337      0.70106      .   S
    C176   O337      0.70106      .   S
    C177   O338      0.54541  1_554   S
    C52    O338      0.54541      .   S
    C195   O339      0.69448      .   S
    C196   O339      0.69448      .   S
    C195   O340      0.70100      .   S
    C194   O340      0.70100      .   S
    C195   O341      0.54534  1_554   S
    C66    O341      0.54534      .   S
    C30    O342      0.54405      .   S
    C148   O342      0.54405  1_556   S
    C100   O343      0.54399      .   S
    C238   O343      0.54399  1_556   S
    C178   O344      0.67347      .   S
    C270   O344      0.67347      .   S
    C178   O345      0.54384      .   S
    C53    O345      0.54384  1_556   S
    C196   O346      0.67340      .   S
    C272   O346      0.67340      .   S
    C196   O347      0.54393      .   S
    C67    O347      0.54393  1_556   S
    C94    O348      0.54509      .   S
    C231   O348      0.54509  1_556   S
    C24    O349      0.54539      .   S
    C141   O349      0.54539  1_556   S
    C302   O350      0.64060      .   S
    C227   O350      0.64060      .   S
    C302   O351      1.03399  1_554   S
    C6     O351      1.03399      .   S
    C290   O352      0.64015      .   S
    C173   O352      0.64015      .   S
    C290   O353      1.03441  1_554   S
    C1     O353      1.03441      .   S
    C200   O354      0.70048      .   S
    C199   O354      0.70048      .   S
    C200   O355      0.70150      .   S
    C201   O355      0.70150  1_556   S
    C182   O356      0.70027      .   S
    C181   O356      0.70027      .   S
    C182   O357      0.70182      .   S
    C183   O357      0.70182  1_556   S
    C179   O358      0.74884      .   S
    C176   O358      0.74884      .   S
    C179   O359      0.54855  1_545   S
    C54    O359      0.54855      .   S
    C179   O360      0.80458  1_545   S
    C149   O360      0.80458  1_556   S
    C197   O361      0.74886      .   S
    C194   O361      0.74886      .   S
    C197   O362      0.54853      .   S
    C68    O362      0.54853      .   S
    C197   O363      0.80469      .   S
    C239   O363      0.80469  1_556   S
    C176   O364      0.70174      .   S
    C175   O364      0.70174      .   S
    C194   O365      0.70177      .   S
    C193   O365      0.70177      .   S
    C273   O366      1.08741      .   S
    C4     O366      1.08741  1_655   S
    C273   O367      0.67340      .   S
    C198   O367      0.67340      .   S
    C271   O368      1.08745      .   S
    C3     O368      1.08745      .   S
    C271   O369      0.67343      .   S
    C180   O369      0.67343      .   S
    C3     O370      1.09648      .   S
    C270   O370      1.09648      .   S
    C3     O371      1.03587      .   S
    C291   O371      1.03587  1_565   S
    C3     O372      1.04948      .   S
    C292   O372      1.04948      .   S
    C3     O373      1.03444      .   S
    C282   O373      1.03444  1_556   S
    C4     O374      1.09671      .   S
    C272   O374      1.09671      .   S
    C4     O375      1.03582  1_655   S
    C303   O375      1.03582      .   S
    C4     O376      1.04952  1_655   S
    C296   O376      1.04952      .   S
    C4     O377      1.03451      .   S
    C310   O377      1.03451  1_556   S
    C270   O378      0.67439      .   S
    C174   O378      0.67439      .   S
    C272   O379      0.67446      .   S
    C192   O379      0.67446      .   S
    C227   O380      0.63428      .   S
    C303   O380      0.63428      .   S
    C227   O381      0.74452      .   S
    C226   O381      0.74452      .   S
    C173   O382      0.63440      .   S
    C291   O382      0.63440      .   S
    C173   O383      0.74444      .   S
    C172   O383      0.74444      .   S
    C181   O384      0.69705      .   S
    C180   O384      0.69705      .   S
    C181   O385      0.54431      .   S
    C56    O385      0.54431      .   S
    C199   O386      0.69706      .   S
    C198   O386      0.69706      .   S
    C199   O387      0.54485      .   S
    C70    O387      0.54485      .   S
    C297   O388      0.63514      .   S
    C204   O388      0.63514      .   S
    C293   O389      0.63516      .   S
    C186   O389      0.63516      .   S
    C198   O390      0.54505      .   S
    C69    O390      0.54505      .   S
    C180   O391      0.54455      .   S
    C55    O391      0.54455      .   S
    C175   O392      0.69552      .   S
    C174   O392      0.69552      .   S
    C175   O393      0.54542  1_545   S
    C51    O393      0.54542      .   S
    C193   O394      0.69555      .   S
    C192   O394      0.69555      .   S
    C193   O395      0.54545      .   S
    C65    O395      0.54545      .   S
    C174   O396      0.54482      .   S
    C50    O396      0.54482      .   S
    C192   O397      0.54479      .   S
    C64    O397      0.54479      .   S
    C49    O398      0.54606      .   S
    C172   O398      0.54606      .   S
    C91    O399      0.54607      .   S
    C226   O399      0.54607      .   S
    C172   O400      0.67633      .   S
    C171   O400      0.67633      .   S
    C226   O401      0.67627      .   S
    C225   O401      0.67627      .   S
    C204   O402      0.64314      .   S
    C296   O402      0.64314      .   S
    C204   O403      0.74321      .   S
    C205   O403      0.74321      .   S
    C186   O404      0.64326      .   S
    C292   O404      0.64326      .   S
    C186   O405      0.74359      .   S
    C187   O405      0.74359      .   S
    C74    O406      0.54549      .   S
    C205   O406      0.54549      .   S
    C60    O407      0.54661      .   S
    C187   O407      0.54661      .   S
    C171   O408      0.54765      .   S
    C48    O408      0.54765      .   S
    C171   O409      0.72047      .   S
    C170   O409      0.72047      .   S
    C225   O410      0.54765      .   S
    C90    O410      0.54765  1_655   S
    C225   O411      0.72007      .   S
    C224   O411      0.72007      .   S
    C205   O412      0.67569  1_455   S
    C206   O412      0.67569      .   S
    C187   O413      0.67617      .   S
    C188   O413      0.67617      .   S
    C47    O414      0.54705      .   S
    C170   O414      0.54705      .   S
    C89    O415      0.54693      .   S
    C224   O415      0.54693      .   S
    C170   O416      0.67607      .   S
    C169   O416      0.67607      .   S
    C224   O417      0.67649  1_455   S
    C223   O417      0.67649      .   S
    C188   O418      0.54706      .   S
    C61    O418      0.54706      .   S
    C188   O419      0.72063      .   S
    C189   O419      0.72063      .   S
    C206   O420      0.54704      .   S
    C75    O420      0.54704      .   S
    C206   O421      0.72064      .   S
    C207   O421      0.72064      .   S
    C76    O422      0.54763      .   S
    C207   O422      0.54763      .   S
    C62    O423      0.54762      .   S
    C189   O423      0.54762      .   S
    C169   O424      0.54663      .   S
    C46    O424      0.54663      .   S
    C169   O425      0.74396      .   S
    C168   O425      0.74396      .   S
    C223   O426      0.54664      .   S
    C88    O426      0.54664      .   S
    C223   O427      0.74404      .   S
    C222   O427      0.74404      .   S
    C189   O428      0.67635      .   S
    C190   O428      0.67635      .   S
    C207   O429      0.67629      .   S
    C208   O429      0.67629      .   S
    C288   O430      0.64424      .   S
    C168   O430      0.64424      .   S
    C288   O431      1.03432      .   S
    C2     O431      1.03432      .   S
    C300   O432      0.64426      .   S
    C222   O432      0.64426      .   S
    C300   O433      1.03438  1_655   S
    C5     O433      1.03438      .   S
    C36    O434      0.54474      .   S
    C156   O434      0.54474      .   S
    C78    O435      0.54482      .   S
    C210   O435      0.54482      .   S
    C168   O436      0.63362      .   S
    C289   O436      0.63362      .   S
    C222   O437      0.63363      .   S
    C301   O437      0.63363      .   S
    C37    O438      0.54551      .   S
    C157   O438      0.54551      .   S
    C79    O439      0.54543  1_565   S
    C211   O439      0.54543      .   S
    C41    O440      0.54497      .   S
    C162   O440      0.54497      .   S
    C83    O441      0.54498      .   S
    C216   O441      0.54498      .   S
    C190   O442      0.54605      .   S
    C63    O442      0.54605      .   S
    C190   O443      0.74443      .   S
    C191   O443      0.74443      .   S
    C208   O444      0.54606      .   S
    C77    O444      0.54606      .   S
    C208   O445      0.74439      .   S
    C209   O445      0.74439      .   S
    C42    O446      0.54481      .   S
    C163   O446      0.54481      .   S
    C84    O447      0.54475      .   S
    C217   O447      0.54475      .   S
    C156   O448      0.69538      .   S
    C157   O448      0.69538      .   S
    C156   O449      0.67448      .   S
    C268   O449      0.67448      .   S
    C210   O450      0.69540      .   S
    C211   O450      0.69540      .   S
    C210   O451      0.67451      .   S
    C274   O451      0.67451      .   S
    C157   O452      0.70165      .   S
    C158   O452      0.70165      .   S
    C211   O453      0.70179      .   S
    C212   O453      0.70179      .   S
    C162   O454      0.69684      .   S
    C163   O454      0.69684      .   S
    C162   O455      0.67345      .   S
    C269   O455      0.67345      .   S
    C216   O456      0.69677      .   S
    C217   O456      0.69677      .   S
    C216   O457      0.67345      .   S
    C275   O457      0.67345      .   S
    C295   O458      0.63505      .   S
    C191   O458      0.63505      .   S
    C295   O459      1.03683      .   S
    C2     O459      1.03683      .   S
    C299   O460      0.63507      .   S
    C209   O460      0.63507      .   S
    C299   O461      1.03660  1_565   S
    C5     O461      1.03660  1_455   S
    C40    O462      0.54861      .   S
    C161   O462      0.54861      .   S
    C82    O463      0.54854      .   S
    C215   O463      0.54854  1_545   S
    C163   O464      0.70015      .   S
    C164   O464      0.70015      .   S
    C217   O465      0.70010      .   S
    C218   O465      0.70010      .   S
    C191   O466      0.63973      .   S
    C294   O466      0.63973      .   S
    C209   O467      0.63978      .   S
    C298   O467      0.63978      .   S
    C268   O468      1.09535      .   S
    C2     O468      1.09535      .   S
    C268   O469      0.67343      .   S
    C160   O469      0.67343      .   S
    C274   O470      1.09682      .   S
    C5     O470      1.09682      .   S
    C274   O471      0.67335      .   S
    C214   O471      0.67335      .   S
    C5     O472      1.08394  1_455   S
    C275   O472      1.08394      .   S
    C5     O473      1.03117      .   S
    C306   O473      1.03117      .   S
    C2     O474      1.08542      .   S
    C269   O474      1.08542      .   S
    C2     O475      1.03098      .   S
    C286   O475      1.03098      .   S
    C158   O476      0.74849      .   S
    C161   O476      0.74849      .   S
    C158   O477      0.70084      .   S
    C159   O477      0.70084      .   S
    C212   O478      0.74855      .   S
    C215   O478      0.74855      .   S
    C212   O479      0.70109      .   S
    C213   O479      0.70109      .   S
    C269   O480      0.67463      .   S
    C166   O480      0.67463      .   S
    C275   O481      0.67464      .   S
    C220   O481      0.67464      .   S
    C161   O482      0.77258  1_455   S
    C167   O482      0.77258      .   S
    C161   O483      0.80479      .   S
    C131   O483      0.80479      .   S
    C215   O484      0.77253      .   S
    C221   O484      0.77253      .   S
    C215   O485      0.80477  1_545   S
    C257   O485      0.80477      .   S
    C113   O486      0.54521      .   S
    C255   O486      0.54521      .   S
    C15    O487      0.54520      .   S
    C129   O487      0.54520      .   S
    C164   O488      0.74775      .   S
    C167   O488      0.74775      .   S
    C164   O489      0.70179      .   S
    C165   O489      0.70179      .   S
    C218   O490      0.74762      .   S
    C221   O490      0.74762      .   S
    C218   O491      0.70184      .   S
    C219   O491      0.70184      .   S
    C294   O492      1.03100      .   S
    C0     O492      1.03100      .   S
    C298   O493      1.03096      .   S
    C7     O493      1.03096      .   S
    C108   O494      0.54523      .   S
    C249   O494      0.54523      .   S
    C10    O495      0.54540      .   S
    C123   O495      0.54540      .   S
    C160   O496      0.69434      .   S
    C159   O496      0.69434      .   S
    C160   O497      0.54385      .   S
    C39    O497      0.54385      .   S
    C214   O498      0.69446      .   S
    C213   O498      0.69446      .   S
    C214   O499      0.54391      .   S
    C81    O499      0.54391      .   S
    C114   O500      0.54398      .   S
    C256   O500      0.54398      .   S
    C16    O501      0.54400      .   S
    C130   O501      0.54400      .   S
    C159   O502      0.54576      .   S
    C38    O502      0.54576      .   S
    C213   O503      0.54537      .   S
    C80    O503      0.54537      .   S
    C115   O504      0.54810      .   S
    C257   O504      0.54810      .   S
    C17    O505      0.54805      .   S
    C131   O505      0.54805      .   S
    C109   O506      0.54381      .   S
    C250   O506      0.54381      .   S
    C11    O507      0.54382      .   S
    C124   O507      0.54382      .   S
    C166   O508      0.69259      .   S
    C165   O508      0.69259      .   S
    C166   O509      0.54402      .   S
    C44    O509      0.54402      .   S
    C220   O510      0.69257      .   S
    C219   O510      0.69257      .   S
    C220   O511      0.54395      .   S
    C86    O511      0.54395      .   S
    C167   O512      0.54808      .   S
    C45    O512      0.54808      .   S
    C167   O513      0.80480      .   S
    C125   O513      0.80480      .   S
    C221   O514      0.54817      .   S
    C87    O514      0.54817      .   S
    C221   O515      0.80495      .   S
    C251   O515      0.80495  1_565   S
    C255   O516      0.69257      .   S
    C256   O516      0.69257      .   S
    C255   O517      0.70183      .   S
    C254   O517      0.70183      .   S
    C129   O518      0.69259      .   S
    C130   O518      0.69259      .   S
    C129   O519      0.70185      .   S
    C128   O519      0.70185      .   S
    C165   O520      0.54523      .   S
    C43    O520      0.54523      .   S
    C219   O521      0.54518      .   S
    C85    O521      0.54518      .   S
    C257   O522      0.74770      .   S
    C254   O522      0.74770      .   S
    C257   O523      0.77265      .   S
    C251   O523      0.77265      .   S
    C131   O524      0.74777      .   S
    C128   O524      0.74777      .   S
    C131   O525      0.77259      .   S
    C125   O525      0.77259  1_655   S
    C256   O526      0.67465      .   S
    C279   O526      0.67465      .   S
    C130   O527      0.67454      .   S
    C265   O527      0.67454      .   S
    C249   O528      0.69448      .   S
    C250   O528      0.69448      .   S
    C249   O529      0.70133      .   S
    C248   O529      0.70133      .   S
    C123   O530      0.69438      .   S
    C124   O530      0.69438      .   S
    C123   O531      0.70098      .   S
    C122   O531      0.70098      .   S
    C250   O532      0.67347      .   S
    C278   O532      0.67347      .   S
    C124   O533      0.67347      .   S
    C264   O533      0.67347      .   S
    C286   O534      0.63979      .   S
    C155   O534      0.63979      .   S
    C306   O535      0.63977      .   S
    C245   O535      0.63977      .   S
    C254   O536      0.70004      .   S
    C253   O536      0.70004      .   S
    C128   O537      0.70013      .   S
    C127   O537      0.70013      .   S
    C251   O538      0.74857      .   S
    C248   O538      0.74857      .   S
    C251   O539      0.54856  1_565   S
    C110   O539      0.54856      .   S
    C125   O540      0.74845      .   S
    C122   O540      0.74845      .   S
    C125   O541      0.54859      .   S
    C12    O541      0.54859      .   S
    C279   O542      1.08387      .   S
    C7     O542      1.08387  1_655   S
    C279   O543      0.67339      .   S
    C252   O543      0.67339      .   S
    C265   O544      1.08548      .   S
    C0     O544      1.08548      .   S
    C265   O545      0.67356      .   S
    C126   O545      0.67356      .   S
    C248   O546      0.70168      .   S
    C247   O546      0.70168      .   S
    C122   O547      0.70194      .   S
    C121   O547      0.70194      .   S
    C0     O548      1.09530      .   S
    C264   O548      1.09530      .   S
    C0     O549      1.03690      .   S
    C287   O549      1.03690      .   S
    C0     O550      1.03417      .   S
    C280   O550      1.03417      .   S
    C7     O551      1.09687      .   S
    C278   O551      1.09687      .   S
    C7     O552      1.03669  1_655   S
    C307   O552      1.03669  1_545   S
    C7     O553      1.03459  1_655   S
    C308   O553      1.03459      .   S
    C278   O554      0.67456      .   S
    C246   O554      0.67456      .   S
    C264   O555      0.67447      .   S
    C120   O555      0.67447      .   S
    C155   O556      0.63501      .   S
    C287   O556      0.63501      .   S
    C155   O557      0.74438      .   S
    C154   O557      0.74438      .   S
    C245   O558      0.63507      .   S
    C307   O558      0.63507      .   S
    C245   O559      0.74439      .   S
    C244   O559      0.74439      .   S
    C253   O560      0.69678      .   S
    C252   O560      0.69678      .   S
    C253   O561      0.54483      .   S
    C112   O561      0.54483      .   S
    C127   O562      0.69684      .   S
    C126   O562      0.69684      .   S
    C127   O563      0.54479      .   S
    C14    O563      0.54479      .   S
    C309   O564      0.63307      .   S
    C258   O564      0.63307      .   S
    C281   O565      0.63325      .   S
    C132   O565      0.63325      .   S
    C252   O566      0.54501      .   S
    C111   O566      0.54501      .   S
    C126   O567      0.54502      .   S
    C13    O567      0.54502      .   S
    C247   O568      0.69540      .   S
    C246   O568      0.69540      .   S
    C247   O569      0.54533      .   S
    C107   O569      0.54533  1_545   S
    C121   O570      0.69538      .   S
    C120   O570      0.69538      .   S
    C121   O571      0.54545      .   S
    C9     O571      0.54545      .   S
    C246   O572      0.54478      .   S
    C106   O572      0.54478      .   S
    C120   O573      0.54477      .   S
    C8     O573      0.54477      .   S
    C105   O574      0.54605      .   S
    C244   O574      0.54605      .   S
    C35    O575      0.54605      .   S
    C154   O575      0.54605      .   S
    C154   O576      0.67637      .   S
    C153   O576      0.67637      .   S
    C244   O577      0.67629      .   S
    C243   O577      0.67629      .   S
    C258   O578      0.64360      .   S
    C308   O578      0.64360      .   S
    C258   O579      0.74405      .   S
    C259   O579      0.74405      .   S
    C132   O580      0.64434      .   S
    C280   O580      0.64434      .   S
    C132   O581      0.74421      .   S
    C133   O581      0.74421      .   S
    C116   O582      0.54516      .   S
    C259   O582      0.54516      .   S
    C18    O583      0.54660      .   S
    C133   O583      0.54660      .   S
    C153   O584      0.54760      .   S
    C34    O584      0.54760      .   S
    C153   O585      0.72064      .   S
    C152   O585      0.72064      .   S
    C243   O586      0.54764      .   S
    C104   O586      0.54764      .   S
    C243   O587      0.72064      .   S
    C242   O587      0.72064      .   S
    C259   O588      0.67446  1_455   S
    C260   O588      0.67446      .   S
    C133   O589      0.67605      .   S
    C134   O589      0.67605      .   S
    C103   O590      0.54705      .   S
    C242   O590      0.54705      .   S
    C33    O591      0.54706      .   S
    C152   O591      0.54706      .   S
    C152   O592      0.67611      .   S
    C151   O592      0.67611      .   S
    C242   O593      0.67579      .   S
    C241   O593      0.67579  1_655   S
    C260   O594      0.54702      .   S
    C117   O594      0.54702      .   S
    C260   O595      0.72047      .   S
    C261   O595      0.72047      .   S
    C134   O596      0.54704      .   S
    C19    O596      0.54704      .   S
    C134   O597      0.72047      .   S
    C135   O597      0.72047      .   S
    C20    O598      0.54766      .   S
    C135   O598      0.54766      .   S
    C118   O599      0.54751  1_455   S
    C261   O599      0.54751      .   S
    C241   O600      0.54671      .   S
    C102   O600      0.54671      .   S
    C241   O601      0.74387      .   S
    C240   O601      0.74387      .   S
    C151   O602      0.54664      .   S
    C32    O602      0.54664      .   S
    C151   O603      0.74361      .   S
    C150   O603      0.74361      .   S
    C261   O604      0.67628      .   S
    C262   O604      0.67628      .   S
    C135   O605      0.67628      .   S
    C136   O605      0.67628      .   S
    C284   O606      0.64327      .   S
    C150   O606      0.64327      .   S
    C284   O607      1.04939      .   S
    C1     O607      1.04939      .   S
    C304   O608      0.64325      .   S
    C240   O608      0.64325      .   S
    C304   O609      1.04953      .   S
    C6     O609      1.04953  1_455   S
    C22    O610      0.54480      .   S
    C138   O610      0.54480      .   S
    C92    O611      0.54480      .   S
    C228   O611      0.54480      .   S
    C150   O612      0.63518      .   S
    C285   O612      0.63518      .   S
    C240   O613      0.63520      .   S
    C305   O613      0.63520      .   S
    C23    O614      0.54544      .   S
    C139   O614      0.54544  1_565   S
    C93    O615      0.54545      .   S
    C229   O615      0.54545      .   S
    C97    O616      0.54496      .   S
    C234   O616      0.54496      .   S
    C27    O617      0.54505      .   S
    C144   O617      0.54505      .   S
    C262   O618      0.54609      .   S
    C119   O618      0.54609      .   S
    C262   O619      0.74442      .   S
    C263   O619      0.74442      .   S
    C136   O620      0.54604      .   S
    C21    O620      0.54604      .   S
    C136   O621      0.74437      .   S
    C137   O621      0.74437      .   S
    C98    O622      0.54485      .   S
    C235   O622      0.54485      .   S
    C28    O623      0.54485      .   S
    C145   O623      0.54485      .   S
    C228   O624      0.69555      .   S
    C229   O624      0.69555      .   S
    C228   O625      0.67438      .   S
    C276   O625      0.67438      .   S
    C138   O626      0.69556      .   S
    C139   O626      0.69556      .   S
    C138   O627      0.67477      .   S
    C266   O627      0.67477      .   S
    C229   O628      0.70170      .   S
    C230   O628      0.70170      .   S
    C139   O629      0.70178      .   S
    C140   O629      0.70178      .   S
    C234   O630      0.69707      .   S
    C235   O630      0.69707      .   S
    C234   O631      0.67346      .   S
    C277   O631      0.67346      .   S
    C144   O632      0.69706      .   S
    C145   O632      0.69706      .   S
    C144   O633      0.67339      .   S
    C267   O633      0.67339      .   S
    C283   O634      0.63457      .   S
    C137   O634      0.63457      .   S
    C283   O635      1.03602  1_545   S
    C1     O635      1.03602      .   S
    C311   O636      0.63445      .   S
    C263   O636      0.63445      .   S
    C311   O637      1.03602      .   S
    C6     O637      1.03602  1_455   S
    C26    O638      0.54929      .   S
    C143   O638      0.54929  1_565   S
    C96    O639      0.54853      .   S
    C233   O639      0.54853      .   S
    C235   O640      0.70021      .   S
    C236   O640      0.70021      .   S
    C145   O641      0.70017      .   S
    C146   O641      0.70017      .   S
    C137   O642      0.64023      .   S
    C282   O642      0.64023      .   S
    C263   O643      0.64021      .   S
    C310   O643      0.64021      .   S
    C276   O644      1.09668      .   S
    C6     O644      1.09668      .   S
    C276   O645      0.67349      .   S
    C232   O645      0.67349      .   S
    C266   O646      1.09661      .   S
    C1     O646      1.09661      .   S
    C266   O647      0.67352      .   S
    C142   O647      0.67352      .   S
    C1     O648      1.08749      .   S
    C267   O648      1.08749      .   S
    C6     O649      1.08744  1_455   S
    C277   O649      1.08744      .   S
    C267   O650      0.67478      .   S
    C148   O650      0.67478      .   S
    C277   O651      0.67469      .   S
    C238   O651      0.67469      .   S
    C230   O652      0.74885      .   S
    C233   O652      0.74885      .   S
    C230   O653      0.70106      .   S
    C231   O653      0.70106      .   S
    C140   O654      0.74883      .   S
    C143   O654      0.74883      .   S
    C140   O655      0.70100      .   S
    C141   O655      0.70100      .   S
    C233   O656      0.77319      .   S
    C239   O656      0.77319      .   S
    C143   O657      0.77320  1_455   S
    C149   O657      0.77320      .   S
    C57    O658      0.54530      .   S
    C183   O658      0.54530      .   S
    C71    O659      0.54529      .   S
    C201   O659      0.54529      .   S
    C236   O660      0.74837      .   S
    C239   O660      0.74837      .   S
    C146   O661      0.74843      .   S
    C149   O661      0.74843      .   S
    C232   O662      0.69448      .   S
    C231   O662      0.69448      .   S
    C142   O663      0.69448      .   S
    C141   O663      0.69448      .   S
