# CIF file generated by openbabel 2.4.90, see http://openbabel.sf.net
data_I
_chemical_name_common ''
_cell_length_a 13.544
_cell_length_b 14.801
_cell_length_c 21.599
_cell_angle_alpha 89.493
_cell_angle_beta 89.904
_cell_angle_gamma 90.087
_space_group_name_H-M_alt 'P 1'
_space_group_name_Hall 'P 1'
loop_
    _symmetry_equiv_pos_as_xyz
    x,y,z
loop_
    _atom_site_label
    _atom_site_type_symbol
    _atom_site_fract_x
    _atom_site_fract_y
    _atom_site_fract_z
    _atom_site_occupancy
    N0      N    0.00001   0.00001   0.99998   1.000
    N1      N    0.50442   0.31355   0.28359   1.000
    N2      N    0.00001   0.50001   0.49998   1.000
    N3      N    0.50363   0.18475   0.78340   1.000
    N4      N    0.50002   0.50001   0.99999   1.000
    N5      N    0.50001   0.00002   0.50000   1.000
    N6      N    0.49559   0.68648   0.71636   1.000
    N7      N    0.99468   0.68449   0.78335   1.000
    N8      N    0.99422   0.81357   0.28359   1.000
    N9      N    0.00344   0.31551   0.21662   1.000
    N10     N    0.49640   0.81539   0.21657   1.000
    N11     N    0.00451   0.18643   0.71638   1.000
    Zr12    Zr   0.50003   0.50007   0.49999   1.000
    O13     O    0.49976   0.35159   0.61350   1.000
    O14     O    0.50380   0.41737   0.41949   1.000
    O15     O    0.49623   0.58273   0.58048   1.000
    O16     O    0.50029   0.64859   0.38648   1.000
    O17     O    0.35510   0.47307   0.51536   1.000
    O18     O    0.64524   0.47476   0.51668   1.000
    O19     O    0.64494   0.52702   0.48461   1.000
    O20     O    0.35481   0.52533   0.48329   1.000
    Zr21    Zr   0.99909   0.00000   0.49999   1.000
    O22     O    0.14484   0.02530   0.48330   1.000
    O23     O    0.85470   0.02700   0.48462   1.000
    O24     O    0.99822   0.85137   0.61346   1.000
    O25     O    0.99542   0.91734   0.41949   1.000
    O26     O    0.85427   0.97472   0.51668   1.000
    O27     O    0.14440   0.97301   0.51536   1.000
    O28     O    0.00336   0.08267   0.58048   1.000
    O29     O    0.99927   0.14863   0.38651   1.000
    Zr30    Zr   0.99954   0.50000   0.99998   1.000
    O31     O    0.14471   0.52704   0.01562   1.000
    O32     O    0.85452   0.52523   0.01692   1.000
    O33     O    0.99833   0.64675   0.11383   1.000
    O34     O    0.99588   0.58259   0.91962   1.000
    O35     O    0.85485   0.47297   0.98434   1.000
    O36     O    0.14504   0.47477   0.98304   1.000
    O37     O    0.00320   0.41741   0.08035   1.000
    O38     O    0.00026   0.35326   0.88613   1.000
    Zr39    Zr   0.50002   1.00000   0.99997   1.000
    O40     O    0.49958   0.85327   0.88612   1.000
    O41     O    0.49643   0.91737   0.08033   1.000
    O42     O    0.50359   0.08266   0.91963   1.000
    O43     O    0.50045   0.14673   0.11383   1.000
    O44     O    0.64527   0.02525   0.01690   1.000
    O45     O    0.35509   0.02703   0.01562   1.000
    O46     O    0.35476   0.97475   0.98305   1.000
    O47     O    0.64494   0.97297   0.98433   1.000
loop_
    _geom_bond_atom_site_label_1
    _geom_bond_atom_site_label_2
    _geom_bond_distance
    _geom_bond_site_symmetry_2
    _ccdc_geom_bond_type
    Zr12   O13       3.27800      .   S
    N3     O13       4.40543      .   S
    Zr12   O14       2.13586      .   S
    N1     O14       3.32511      .   S
    Zr12   O15       2.13522      .   S
    N6     O15       3.32444      .   S
    Zr12   O16       3.27832      .   S
    N10    O16       4.40516      .   S
    Zr12   O17       2.02880      .   S
    N2     O17       4.83810      .   S
    Zr12   O18       2.03484      .   S
    N2     O18       4.83171  1_455   S
    Zr12   O19       2.02854      .   S
    N2     O19       4.83802  1_455   S
    Zr12   O20       2.03482      .   S
    N2     O20       4.83194      .   S
    Zr21   O22       2.03956  1_655   S
    N5     O22       4.83939      .   S
    Zr21   O23       2.02398      .   S
    N5     O23       4.83052      .   S
    Zr21   O24       3.27887  1_545   S
    N7     O24       4.40528      .   S
    Zr21   O25       2.13542  1_545   S
    N8     O25       3.32486      .   S
    Zr21   O26       2.02747  1_545   S
    N5     O26       4.82699  1_545   S
    Zr21   O27       2.03603  1_645   S
    N5     O27       4.84294  1_545   S
    Zr21   O28       2.13563  1_655   S
    N11    O28       3.32477      .   S
    Zr21   O29       3.27889      .   S
    N9     O29       4.40540  1_455   S
    Zr30   O31       2.03532  1_656   S
    N4     O31       4.84090  1_556   S
    Zr30   O32       2.03319  1_556   S
    N4     O32       4.83002  1_556   S
    Zr30   O33       3.29537  1_556   S
    N8     O33       4.43896      .   S
    Zr30   O34       2.11475      .   S
    N7     O34       3.29543      .   S
    Zr30   O35       2.02909      .   S
    N4     O35       4.83456      .   S
    Zr30   O36       2.03936  1_655   S
    N4     O36       4.83639      .   S
    Zr30   O37       2.11487  1_656   S
    N9     O37       3.29547      .   S
    Zr30   O38       3.29538  1_655   S
    N11    O38       4.43876      .   S
    Zr39   O40       3.29519      .   S
    N6     O40       4.43860      .   S
    Zr39   O41       2.11471  1_556   S
    N10    O41       3.29548      .   S
    Zr39   O42       2.11487  1_565   S
    N3     O42       3.29585      .   S
    Zr39   O43       3.29541  1_566   S
    N1     O43       4.43889      .   S
    Zr39   O44       2.03631  1_566   S
    N0     O44       4.83317  1_456   S
    Zr39   O45       2.03221  1_566   S
    N0     O45       4.83774  1_556   S
    Zr39   O46       2.03627      .   S
    N0     O46       4.83319  1_545   S
    Zr39   O47       2.03218      .   S
    N0     O47       4.83773  1_445   S
