# CIF file generated by openbabel 2.4.90, see http://openbabel.sf.net
data_I
_chemical_name_common ''
_cell_length_a 13.315
_cell_length_b 14.537
_cell_length_c 14.537
_cell_angle_alpha 89.98
_cell_angle_beta 90.001
_cell_angle_gamma 90.016
_space_group_name_H-M_alt 'P 1'
_space_group_name_Hall 'P 1'
loop_
    _symmetry_equiv_pos_as_xyz
    x,y,z
loop_
    _atom_site_label
    _atom_site_type_symbol
    _atom_site_fract_x
    _atom_site_fract_y
    _atom_site_fract_z
    _atom_site_occupancy
    H0      H    0.98341   0.19162   0.19570   1.000
    H1      H    0.86095   0.09356   0.28367   1.000
    H2      H    0.61748   0.25926   0.17671   1.000
    H3      H    0.73977   0.35269   0.08925   1.000
    H4      H    0.56695   0.07060   0.16768   1.000
    H5      H    0.77724   0.08420   0.46590   1.000
    H6      H    0.75773   0.19669   0.42284   1.000
    H7      H    0.67332   0.15092   0.50722   1.000
    H8      H    0.98341   0.80832   0.80432   1.000
    H9      H    0.86103   0.90640   0.71636   1.000
    H10     H    0.61743   0.74074   0.82331   1.000
    H11     H    0.73964   0.64727   0.91074   1.000
    H12     H    0.56706   0.92939   0.83239   1.000
    H13     H    0.77725   0.91588   0.53410   1.000
    H14     H    0.75770   0.80337   0.57715   1.000
    H15     H    0.67329   0.84915   0.49281   1.000
    H16     H    0.48358   0.69150   0.30492   1.000
    H17     H    0.36142   0.59314   0.21697   1.000
    H18     H    0.11755   0.75898   0.32278   1.000
    H19     H    0.23952   0.85279   0.41014   1.000
    H20     H    0.06776   0.56949   0.33244   1.000
    H21     H    0.27731   0.58449   0.03380   1.000
    H22     H    0.25787   0.69675   0.07743   1.000
    H23     H    0.17327   0.65138   0.99301   1.000
    H24     H    0.48359   0.30846   0.69511   1.000
    H25     H    0.36151   0.40684   0.78305   1.000
    H26     H    0.11751   0.24104   0.67723   1.000
    H27     H    0.23940   0.14720   0.58990   1.000
    H28     H    0.06791   0.43053   0.66753   1.000
    H29     H    0.27732   0.41554   0.96620   1.000
    H30     H    0.25783   0.30328   0.92261   1.000
    H31     H    0.17323   0.34865   0.00000   1.000
    H32     H    0.98340   0.80444   0.19177   1.000
    H33     H    0.86105   0.71646   0.09368   1.000
    H34     H    0.61741   0.82318   0.25927   1.000
    H35     H    0.73959   0.91065   0.35274   1.000
    H36     H    0.56702   0.83232   0.07064   1.000
    H37     H    0.77740   0.53421   0.08413   1.000
    H38     H    0.75784   0.57713   0.19664   1.000
    H39     H    0.67348   0.49275   0.15085   1.000
    H40     H    0.98335   0.19567   0.80819   1.000
    H41     H    0.86106   0.28367   0.90625   1.000
    H42     H    0.61736   0.17685   0.74072   1.000
    H43     H    0.73949   0.08936   0.64728   1.000
    H44     H    0.56702   0.16772   0.92937   1.000
    H45     H    0.77737   0.46598   0.91572   1.000
    H46     H    0.75783   0.42295   0.80325   1.000
    H47     H    0.67345   0.50730   0.84898   1.000
    H48     H    0.48366   0.30486   0.30864   1.000
    H49     H    0.36142   0.21696   0.40702   1.000
    H50     H    0.11764   0.32291   0.24105   1.000
    H51     H    0.23969   0.41022   0.14723   1.000
    H52     H    0.06786   0.33253   0.43057   1.000
    H53     H    0.27718   0.03386   0.41564   1.000
    H54     H    0.25773   0.07750   0.30336   1.000
    H55     H    0.17309   0.99309   0.34870   1.000
    H56     H    0.48362   0.69522   0.69142   1.000
    H57     H    0.36142   0.78315   0.59307   1.000
    H58     H    0.11759   0.67713   0.75900   1.000
    H59     H    0.23960   0.58980   0.85280   1.000
    H60     H    0.06783   0.66752   0.56940   1.000
    H61     H    0.27716   0.96631   0.58450   1.000
    H62     H    0.25775   0.92258   0.69676   1.000
    H63     H    0.17309   0.00000   0.65143   1.000
    C64     C    0.86903   0.27767   0.13680   1.000
    C65     C    0.90300   0.20502   0.19210   1.000
    C66     C    0.83523   0.15047   0.24087   1.000
    C67     C    0.73263   0.16983   0.23368   1.000
    C68     C    0.69708   0.24200   0.17925   1.000
    C69     C    0.76587   0.29535   0.13082   1.000
    C70     C    0.58065   0.06933   0.24113   1.000
    C71     C    0.65262   0.09757   0.37408   1.000
    C72     C    0.71919   0.13439   0.44661   1.000
    C73     C    0.86897   0.72228   0.86321   1.000
    C74     C    0.90299   0.79492   0.80783   1.000
    C75     C    0.83526   0.84949   0.75916   1.000
    C76     C    0.73265   0.83015   0.76634   1.000
    C77     C    0.69704   0.75799   0.82077   1.000
    C78     C    0.76579   0.70460   0.86917   1.000
    C79     C    0.58075   0.93068   0.75894   1.000
    C80     C    0.65265   0.90246   0.62590   1.000
    C81     C    0.71918   0.86567   0.55341   1.000
    C82     C    0.36897   0.77767   0.36300   1.000
    C83     C    0.40315   0.70486   0.30819   1.000
    C84     C    0.33556   0.65014   0.25953   1.000
    C85     C    0.23293   0.66947   0.26640   1.000
    C86     C    0.19718   0.74179   0.32047   1.000
    C87     C    0.26578   0.79534   0.36885   1.000
    C88     C    0.08131   0.56851   0.25897   1.000
    C89     C    0.15293   0.59736   0.12597   1.000
    C90     C    0.21928   0.63457   0.05346   1.000
    C91     C    0.36892   0.22228   0.63684   1.000
    C92     C    0.40315   0.29510   0.69184   1.000
    C93     C    0.33561   0.34983   0.74050   1.000
    C94     C    0.23296   0.33053   0.73362   1.000
    C95     C    0.19715   0.25822   0.67956   1.000
    C96     C    0.26571   0.20465   0.63117   1.000
    C97     C    0.08143   0.43152   0.74101   1.000
    C98     C    0.15297   0.40267   0.87403   1.000
    C99     C    0.21928   0.36546   0.94657   1.000
    C100    C    0.86893   0.86320   0.27778   1.000
    C101    C    0.90297   0.80790   0.20514   1.000
    C102    C    0.83527   0.75920   0.15058   1.000
    C103    C    0.73265   0.76632   0.16990   1.000
    C104    C    0.69703   0.82068   0.24200   1.000
    C105    C    0.76575   0.86913   0.29542   1.000
    C106    C    0.58075   0.75889   0.06934   1.000
    C107    C    0.65275   0.62594   0.09754   1.000
    C108    C    0.71932   0.55341   0.13433   1.000
    C109    C    0.86886   0.13684   0.72221   1.000
    C110    C    0.90293   0.19220   0.79482   1.000
    C111    C    0.83525   0.24090   0.84937   1.000
    C112    C    0.73263   0.23377   0.83006   1.000
    C113    C    0.69698   0.17936   0.75794   1.000
    C114    C    0.76568   0.13092   0.70456   1.000
    C115    C    0.58075   0.24117   0.93064   1.000
    C116    C    0.65274   0.37414   0.90230   1.000
    C117    C    0.71930   0.44669   0.86554   1.000
    C118    C    0.36910   0.36321   0.22241   1.000
    C119    C    0.40323   0.30817   0.29525   1.000
    C120    C    0.33559   0.25954   0.34998   1.000
    C121    C    0.23297   0.26647   0.33063   1.000
    C122    C    0.19726   0.32056   0.25828   1.000
    C123    C    0.26591   0.36892   0.20471   1.000
    C124    C    0.08135   0.25905   0.43156   1.000
    C125    C    0.15285   0.12604   0.40274   1.000
    C126    C    0.21915   0.05353   0.36550   1.000
    C127    C    0.36903   0.63684   0.77760   1.000
    C128    C    0.40319   0.69190   0.70481   1.000
    C129    C    0.33557   0.74055   0.65010   1.000
    C130    C    0.23295   0.73361   0.66944   1.000
    C131    C    0.19722   0.67949   0.74179   1.000
    C132    C    0.26584   0.63112   0.79533   1.000
    C133    C    0.08133   0.74100   0.56851   1.000
    C134    C    0.15285   0.87404   0.59737   1.000
    C135    C    0.21915   0.94657   0.63459   1.000
    N136    N    0.52623   0.02651   0.30290   1.000
    N137    N    0.57192   0.04468   0.38662   1.000
    N138    N    0.66057   0.11414   0.28136   1.000
    N139    N    0.52633   0.97351   0.69719   1.000
    N140    N    0.57199   0.95537   0.61346   1.000
    N141    N    0.66063   0.88587   0.71868   1.000
    N142    N    0.02684   0.52581   0.19717   1.000
    N143    N    0.07233   0.54435   0.11343   1.000
    N144    N    0.16104   0.61361   0.21873   1.000
    N145    N    0.02697   0.47423   0.80270   1.000
    N146    N    0.07240   0.45569   0.88655   1.000
    N147    N    0.16111   0.38641   0.78128   1.000
    N148    N    0.52638   0.69713   0.02647   1.000
    N149    N    0.57210   0.61342   0.04460   1.000
    N150    N    0.66065   0.71865   0.11416   1.000
    N151    N    0.52639   0.30291   0.97349   1.000
    N152    N    0.57210   0.38664   0.95532   1.000
    N153    N    0.66065   0.28143   0.88500   1.000
    N154    N    0.02683   0.19725   0.47424   1.000
    N155    N    0.07225   0.11350   0.45572   1.000
    N156    N    0.16104   0.21880   0.38648   1.000
    N157    N    0.02682   0.80280   0.52584   1.000
    N158    N    0.07224   0.88657   0.54440   1.000
    N159    N    0.16103   0.78127   0.61360   1.000
loop_
    _geom_bond_atom_site_label_1
    _geom_bond_atom_site_label_2
    _geom_bond_distance
    _geom_bond_site_symmetry_2
    _ccdc_geom_bond_type
    H31    C99       1.01920  1_554   S
    N148   N149      1.38604      .   S
    N148   C106      1.31089      .   S
    H21    C90       1.09949      .   S
    N149   C107      1.33354      .   S
    C90    H22       1.09655      .   S
    C90    C89       1.47773      .   S
    C90    H23       1.09878  1_554   S
    C106   H36       1.08330      .   S
    C106   N150      1.37791      .   S
    H37    C108      1.09938      .   S
    H3     C69       1.08644      .   S
    H33    C102      1.09021      .   S
    C107   N150      1.37328      .   S
    C107   C108      1.47776      .   S
    N143   C89       1.33352      .   S
    N143   N142      1.38602      .   S
    N150   C103      1.43377      .   S
    C89    N144      1.37332      .   S
    C69    C64       1.40029      .   S
    C69    C68       1.39114      .   S
    C108   H39       1.09880      .   S
    C108   H38       1.09659      .   S
    C64    C65       1.40214      .   S
    H51    C123      1.08643      .   S
    C102   C103      1.39877      .   S
    C102   C101      1.39396      .   S
    H4     C70       1.08338      .   S
    C103   C104      1.39604      .   S
    H2     C68       1.08988      .   S
    C68    C67       1.39654      .   S
    H32    C101      1.08950      .   S
    C65    H0        1.08955      .   S
    C65    C66       1.39455      .   S
    N142   C88       1.31089      .   S
    C123   C118      1.40028      .   S
    C123   C122      1.39116      .   S
    C101   C100      1.40271      .   S
    H17    C84       1.09024      .   S
    N144   C88       1.37784      .   S
    N144   C85       1.43383      .   S
    C118   C119      1.40270      .   S
    C67    C66       1.39875      .   S
    C67    N138      1.43376      .   S
    C66    H1        1.09023      .   S
    H50    C122      1.08992      .   S
    C70    N138      1.37791      .   S
    C70    N136      1.31085      .   S
    C104   H34       1.09003      .   S
    C104   C105      1.39149      .   S
    C122   C121      1.39650      .   S
    C88    H20       1.08326      .   S
    C84    C85       1.39871      .   S
    C84    C83       1.39398      .   S
    C85    C86       1.39655      .   S
    C100   C105      1.40028      .   S
    N138   C71       1.37323      .   S
    C119   H48       1.08952      .   S
    C119   C120      1.39395      .   S
    C105   H35       1.08649      .   S
    N136   N137      1.38611      .   S
    H54    C126      1.09589      .   S
    H16    C83       1.08952      .   S
    C83    C82       1.40113      .   S
    C86    H18       1.08989      .   S
    C86    C87       1.39110      .   S
    C121   C120      1.39870      .   S
    C121   N156      1.43380      .   S
    H55    C126      1.09887  1_565   S
    C120   H49       1.09029      .   S
    C82    C87       1.40042      .   S
    C126   C125      1.47803      .   S
    C126   H53       1.09995      .   S
    C87    H19       1.08649      .   S
    C71    N137      1.33352      .   S
    C71    C72       1.47778      .   S
    N156   C125      1.37324      .   S
    N156   C124      1.37789      .   S
    C125   N155      1.33351      .   S
    H6     C72       1.09657      .   S
    H52    C124      1.08330      .   S
    C124   N154      1.31087      .   S
    C72    H5        1.09937      .   S
    C72    H7        1.09876      .   S
    N155   N154      1.38602      .   S
    H15    C81       1.09871      .   S
    N157   N158      1.38607      .   S
    N157   C133      1.31091      .   S
    H13    C81       1.09947      .   S
    N158   C134      1.33352      .   S
    C81    H14       1.09656      .   S
    C81    C80       1.47710      .   S
    C133   H60       1.08327      .   S
    C133   N159      1.37785      .   S
    H61    C135      1.09954      .   S
    H27    C96       1.08638      .   S
    H57    C129      1.09028      .   S
    C134   N159      1.37322      .   S
    C134   C135      1.47770      .   S
    N140   C80       1.33342      .   S
    N140   N139      1.38603      .   S
    N159   C130      1.43387      .   S
    C80    N141      1.37417      .   S
    C96    C91       1.40023      .   S
    C96    C95       1.39117      .   S
    C135   H63       1.01972  1_565   S
    C135   H62       1.09655      .   S
    C91    C92       1.40283      .   S
    H43    C114      1.08634      .   S
    C129   C130      1.39871      .   S
    C129   C128      1.39400      .   S
    H28    C97       1.08333      .   S
    C130   C131      1.39662      .   S
    H26    C95       1.08987      .   S
    C95    C94       1.39652      .   S
    H56    C128      1.08952      .   S
    C92    H24       1.08951      .   S
    C92    C93       1.39395      .   S
    N139   C79       1.31090      .   S
    C114   C109      1.40027      .   S
    C114   C113      1.39118      .   S
    C128   C127      1.40226      .   S
    H9     C75       1.09026      .   S
    N141   C79       1.37791      .   S
    N141   C76       1.43384      .   S
    C109   C110      1.40279      .   S
    C94    C93       1.39874      .   S
    C94    N147      1.43387      .   S
    C93    H25       1.09021      .   S
    H42    C113      1.08988      .   S
    C97    N147      1.37783      .   S
    C97    N145      1.31002      .   S
    C131   H58       1.08986      .   S
    C131   C132      1.39110      .   S
    C113   C112      1.39659      .   S
    C79    H12       1.08333      .   S
    C75    C76       1.39876      .   S
    C75    C74       1.39397      .   S
    C76    C77       1.39651      .   S
    C127   C132      1.40038      .   S
    N147   C98       1.37325      .   S
    C110   H40       1.08948      .   S
    C110   C111      1.39394      .   S
    C132   H59       1.08644      .   S
    N145   N146      1.38717      .   S
    H46    C117      1.09658      .   S
    H8     C74       1.08950      .   S
    C74    C73       1.40279      .   S
    C77    H10       1.08988      .   S
    C77    C78       1.39112      .   S
    C112   C111      1.39876      .   S
    C112   N153      1.42728      .   S
    H47    C117      1.09878      .   S
    C111   H41       1.09024      .   S
    C73    C78       1.40028      .   S
    C117   C116      1.47735      .   S
    C117   H45       1.09935      .   S
    C78    H11       1.08642      .   S
    C98    N146      1.33357      .   S
    C98    C99       1.47779      .   S
    N153   C116      1.37518      .   S
    N153   C115      1.38341      .   S
    C116   N152      1.33416      .   S
    H30    C99       1.09659      .   S
    H44    C115      1.08329      .   S
    C115   N151      1.31088      .   S
    C99    H29       1.09933      .   S
    N152   N151      1.38607      .   S
