# CIF file generated by openbabel 2.4.90, see http://openbabel.sf.net
data_I
_chemical_name_common ''
_cell_length_a 13.315
_cell_length_b 14.537
_cell_length_c 14.537
_cell_angle_alpha 89.98
_cell_angle_beta 90.001
_cell_angle_gamma 90.016
_space_group_name_H-M_alt 'P 1'
_space_group_name_Hall 'P 1'
loop_
    _symmetry_equiv_pos_as_xyz
    x,y,z
loop_
    _atom_site_label
    _atom_site_type_symbol
    _atom_site_fract_x
    _atom_site_fract_y
    _atom_site_fract_z
    _atom_site_occupancy
    C0      C    0.94313   0.33807   0.08682   1.000
    C1      C    0.94302   0.66186   0.91318   1.000
    C2      C    0.44290   0.83822   0.41317   1.000
    C3      C    0.44279   0.16172   0.58687   1.000
    C4      C    0.94298   0.91321   0.33810   1.000
    C5      C    0.94288   0.08682   0.66183   1.000
    C6      C    0.44306   0.41314   0.16183   1.000
    C7      C    0.44296   0.58689   0.83820   1.000
