# CIF file generated by openbabel 2.4.90, see http://openbabel.sf.net
data_I
_chemical_name_common ''
_cell_length_a 13.315
_cell_length_b 14.537
_cell_length_c 14.537
_cell_angle_alpha 89.98
_cell_angle_beta 90.001
_cell_angle_gamma 90.016
_space_group_name_H-M_alt 'P 1'
_space_group_name_Hall 'P 1'
loop_
    _symmetry_equiv_pos_as_xyz
    x,y,z
loop_
    _atom_site_label
    _atom_site_type_symbol
    _atom_site_fract_x
    _atom_site_fract_y
    _atom_site_fract_z
    _atom_site_occupancy
    Zr0     Zr   0.99986   0.50000   0.99997   1.000
    Zr1     Zr   0.49964   0.00000   0.50004   1.000
    Zr2     Zr   0.99976   0.00000   0.50004   1.000
    Zr3     Zr   0.49975   0.50001   0.99997   1.000
    Zr4     Zr   0.94313   0.33807   0.08682   1.000
    Zr5     Zr   0.94302   0.66186   0.91318   1.000
    Zr6     Zr   0.44290   0.83822   0.41317   1.000
    Zr7     Zr   0.44279   0.16172   0.58687   1.000
    Zr8     Zr   0.94298   0.91321   0.33810   1.000
    Zr9     Zr   0.94288   0.08682   0.66183   1.000
    Zr10    Zr   0.44306   0.41314   0.16183   1.000
    Zr11    Zr   0.44296   0.58689   0.83820   1.000
    Zr12    Zr   0.90281   0.40369   0.03821   1.000
    Zr13    Zr   0.03517   0.32379   0.09433   1.000
    Zr14    Zr   0.90268   0.59616   0.96170   1.000
    Zr15    Zr   0.03507   0.67620   0.90570   1.000
    Zr16    Zr   0.40245   0.90387   0.46161   1.000
    Zr17    Zr   0.53493   0.82399   0.40580   1.000
    Zr18    Zr   0.40232   0.09601   0.53851   1.000
    Zr19    Zr   0.53483   0.17601   0.59417   1.000
    Zr20    Zr   0.90264   0.96174   0.40382   1.000
    Zr21    Zr   0.03502   0.90578   0.32380   1.000
    Zr22    Zr   0.90252   0.03830   0.59610   1.000
    Zr23    Zr   0.03492   0.09424   0.67610   1.000
    Zr24    Zr   0.40263   0.46158   0.09614   1.000
    Zr25    Zr   0.53509   0.40575   0.17607   1.000
    Zr26    Zr   0.40252   0.53844   0.90390   1.000
    Zr27    Zr   0.53500   0.59426   0.82394   1.000
    O28     O    0.92297   0.37088   0.06252   1.000
    O29     O    0.95133   0.45185   0.01909   1.000
    O30     O    0.98915   0.33093   0.09057   1.000
    O31     O    0.42285   0.43736   0.12899   1.000
    O32     O    0.45119   0.48079   0.04806   1.000
    O33     O    0.48908   0.40944   0.16895   1.000
    O34     O    0.98900   0.90949   0.33095   1.000
    O35     O    0.92281   0.93747   0.37096   1.000
    O36     O    0.95120   0.98087   0.45193   1.000
    O37     O    0.48891   0.83111   0.40948   1.000
    O38     O    0.42267   0.87104   0.43739   1.000
    O39     O    0.45104   0.95193   0.48083   1.000
    O40     O    0.45098   0.04800   0.51928   1.000
    O41     O    0.95114   0.01915   0.54807   1.000
    O42     O    0.42256   0.12886   0.56269   1.000
    O43     O    0.48881   0.16887   0.59052   1.000
    O44     O    0.92270   0.06256   0.62896   1.000
    O45     O    0.98890   0.09053   0.66897   1.000
    O46     O    0.48898   0.59057   0.83107   1.000
    O47     O    0.42274   0.56266   0.87105   1.000
    O48     O    0.45114   0.51922   0.95193   1.000
    O49     O    0.98905   0.66903   0.90944   1.000
    O50     O    0.92285   0.62901   0.93744   1.000
    O51     O    0.95127   0.54808   0.98084   1.000
    N52     N    0.72454   0.16132   0.27276   1.000
    O53     O    0.63016   0.09183   0.35804   1.000
    O54     O    0.81531   0.23460   0.19228   1.000
    N55     N    0.22478   0.66110   0.22728   1.000
    O56     O    0.31536   0.73452   0.30768   1.000
    O57     O    0.13044   0.59164   0.14199   1.000
    N58     N    0.22480   0.33891   0.77236   1.000
    O59     O    0.13046   0.40838   0.85781   1.000
    O60     O    0.31533   0.26545   0.69211   1.000
    N61     N    0.72455   0.83868   0.72726   1.000
    O62     O    0.63018   0.90818   0.64201   1.000
    O63     O    0.81527   0.76537   0.80773   1.000
    N64     N    0.22479   0.22735   0.33899   1.000
    O65     O    0.13040   0.14205   0.40843   1.000
    O66     O    0.31544   0.30776   0.26555   1.000
    N67     N    0.22476   0.77237   0.66109   1.000
    O68     O    0.31538   0.69212   0.73449   1.000
    O69     O    0.13038   0.85783   0.59165   1.000
    N70     N    0.72459   0.72725   0.16135   1.000
    O71     O    0.63026   0.64198   0.09182   1.000
    O72     O    0.81527   0.80773   0.23464   1.000
    N73     N    0.72456   0.27282   0.83855   1.000
    O74     O    0.63024   0.35807   0.90810   1.000
    O75     O    0.81522   0.19233   0.76529   1.000
loop_
    _geom_bond_atom_site_label_1
    _geom_bond_atom_site_label_2
    _geom_bond_distance
    _geom_bond_site_symmetry_2
    _ccdc_geom_bond_type
    Zr12   O28       0.65143      .   S
    Zr4    O28       0.65143      .   S
    Zr12   O29       0.99217      .   S
    Zr0    O29       0.99217  1_556   S
    Zr4    O30       0.62388      .   S
    Zr13   O30       0.62388  1_455   S
    Zr24   O31       0.65140      .   S
    Zr10   O31       0.65140      .   S
    Zr24   O32       0.99220      .   S
    Zr3    O32       0.99220  1_556   S
    Zr10   O33       0.62371      .   S
    Zr25   O33       0.62371      .   S
    Zr21   O34       0.62387  1_455   S
    Zr8    O34       0.62387      .   S
    Zr8    O35       0.65186      .   S
    Zr20   O35       0.65186      .   S
    Zr20   O36       0.99227      .   S
    Zr2    O36       0.99227  1_545   S
    Zr17   O37       0.62371      .   S
    Zr6    O37       0.62371      .   S
    Zr6    O38       0.65140      .   S
    Zr16   O38       0.65140      .   S
    Zr16   O39       0.99237      .   S
    Zr1    O39       0.99237  1_545   S
    Zr1    O40       0.99263      .   S
    Zr18   O40       0.99263      .   S
    Zr2    O41       0.99213      .   S
    Zr22   O41       0.99213      .   S
    Zr18   O42       0.65142      .   S
    Zr7    O42       0.65142      .   S
    Zr7    O43       0.62371      .   S
    Zr19   O43       0.62371      .   S
    Zr22   O44       0.65185      .   S
    Zr9    O44       0.65185      .   S
    Zr9    O45       0.62381      .   S
    Zr23   O45       0.62381  1_455   S
    Zr27   O46       0.62371      .   S
    Zr11   O46       0.62371      .   S
    Zr11   O47       0.65143      .   S
    Zr26   O47       0.65143      .   S
    Zr26   O48       0.99225      .   S
    Zr3    O48       0.99225      .   S
    Zr15   O49       0.62391  1_455   S
    Zr5    O49       0.62391      .   S
    Zr5    O50       0.65148      .   S
    Zr14   O50       0.65148      .   S
    Zr14   O51       0.99222      .   S
    Zr0    O51       0.99222      .   S
    N52    O53       2.03356      .   S
    Zr1    O53       3.01004      .   S
    N52    O54       1.99056      .   S
    Zr4    O54       2.73982      .   S
    N55    O56       1.98997      .   S
    Zr6    O56       2.74005      .   S
    N55    O57       2.03348      .   S
    Zr0    O57       3.01005  1_656   S
    N58    O59       2.03521      .   S
    Zr0    O59       3.01203  1_655   S
    N58    O60       1.98892      .   S
    Zr7    O60       2.73827      .   S
    N61    O62       2.03360      .   S
    Zr1    O62       3.01021  1_545   S
    N61    O63       1.99068      .   S
    Zr5    O63       2.73994      .   S
    N64    O65       2.03341      .   S
    Zr2    O65       3.00985  1_655   S
    N64    O66       1.99025      .   S
    Zr10   O66       2.73952      .   S
    N67    O68       1.98883      .   S
    Zr11   O68       2.73835      .   S
    N67    O69       2.03501      .   S
    Zr2    O69       3.01165  1_645   S
    N70    O71       2.03364      .   S
    Zr3    O71       3.01028  1_556   S
    N70    O72       1.99049      .   S
    Zr8    O72       2.73949      .   S
    N73    O74       2.03392      .   S
    Zr3    O74       3.01063      .   S
    N73    O75       1.99058      .   S
    Zr9    O75       2.73990      .   S
