# CIF file generated by openbabel 2.4.90, see http://openbabel.sf.net
data_I
_chemical_name_common ''
_cell_length_a 14.926
_cell_length_b 19.994
_cell_length_c 20.525
_cell_angle_alpha 89.998
_cell_angle_beta 94.364
_cell_angle_gamma 89.993
_space_group_name_H-M_alt 'P 1'
_space_group_name_Hall 'P 1'
loop_
    _symmetry_equiv_pos_as_xyz
    x,y,z
loop_
    _atom_site_label
    _atom_site_type_symbol
    _atom_site_fract_x
    _atom_site_fract_y
    _atom_site_fract_z
    _atom_site_occupancy
    Cd0     Cd   0.13735   0.54701   0.67194   1.000
    Cd1     Cd   0.12350   0.95357   0.33259   1.000
    Cd2     Cd   0.36269   0.04703   0.32805   1.000
    Cd3     Cd   0.62352   0.54642   0.33258   1.000
    Cd4     Cd   0.86270   0.45300   0.32806   1.000
    Cd5     Cd   0.87655   0.04644   0.66741   1.000
    Cd6     Cd   0.63736   0.95298   0.67195   1.000
    Cd7     Cd   0.37652   0.45358   0.66742   1.000
