# CIF file generated by openbabel 2.4.90, see http://openbabel.sf.net
data_I
_chemical_name_common ''
_cell_length_a 14.926
_cell_length_b 19.994
_cell_length_c 20.525
_cell_angle_alpha 89.998
_cell_angle_beta 94.364
_cell_angle_gamma 89.993
_space_group_name_H-M_alt 'P 1'
_space_group_name_Hall 'P 1'
loop_
    _symmetry_equiv_pos_as_xyz
    x,y,z
loop_
    _atom_site_label
    _atom_site_type_symbol
    _atom_site_fract_x
    _atom_site_fract_y
    _atom_site_fract_z
    _atom_site_occupancy
    Zr0     Zr   0.37652   0.45358   0.66742   1.000
    Zr1     Zr   0.13735   0.54701   0.67194   1.000
    Zr2     Zr   0.12350   0.95357   0.33259   1.000
    Zr3     Zr   0.36269   0.04703   0.32805   1.000
    Zr4     Zr   0.62352   0.54642   0.33258   1.000
    Zr5     Zr   0.86270   0.45300   0.32806   1.000
    Zr6     Zr   0.87655   0.04644   0.66741   1.000
    Zr7     Zr   0.63736   0.95298   0.67195   1.000
    N8      N    0.36458   0.03279   0.82760   1.000
    O9      O    0.36473   0.03776   0.60607   1.000
    O10     O    0.36070   0.03918   0.04903   1.000
    N11     N    0.13694   0.96732   0.83299   1.000
    O12     O    0.13059   0.96007   0.05421   1.000
    O13     O    0.13297   0.96303   0.61109   1.000
    N14     N    0.39499   0.76681   0.32919   1.000
    O15     O    0.29872   0.85313   0.32969   1.000
    O16     O    0.39569   0.87966   0.32761   1.000
    N17     N    0.63695   0.53267   0.83298   1.000
    O18     O    0.63299   0.53696   0.61110   1.000
    O19     O    0.63061   0.53992   0.05420   1.000
    N20     N    0.86460   0.46722   0.82761   1.000
    O21     O    0.86071   0.46084   0.04904   1.000
    O22     O    0.86474   0.46226   0.60609   1.000
    N23     N    0.40779   0.73337   0.67463   1.000
    O24     O    0.31223   0.64696   0.67409   1.000
    O25     O    0.40936   0.62068   0.67329   1.000
    N26     N    0.13544   0.53278   0.17238   1.000
    O27     O    0.13934   0.53917   0.95095   1.000
    O28     O    0.13530   0.53774   0.39391   1.000
    N29     N    0.60505   0.23320   0.67079   1.000
    O30     O    0.60435   0.12035   0.67238   1.000
    O31     O    0.70132   0.14688   0.67027   1.000
    N32     N    0.86310   0.03269   0.16701   1.000
    O33     O    0.86708   0.03698   0.38888   1.000
    O34     O    0.86945   0.03994   0.94579   1.000
    N35     N    0.63546   0.96721   0.17238   1.000
    O36     O    0.63531   0.96225   0.39391   1.000
    O37     O    0.63935   0.96083   0.95095   1.000
    N38     N    0.36309   0.46733   0.16702   1.000
    O39     O    0.36706   0.46305   0.38890   1.000
    O40     O    0.36943   0.46009   0.94580   1.000
    N41     N    0.09224   0.23336   0.32536   1.000
    O42     O    0.09067   0.12068   0.32671   1.000
    O43     O    0.18781   0.14696   0.32590   1.000
    N44     N    0.59225   0.26664   0.32536   1.000
    O45     O    0.68782   0.35304   0.32590   1.000
    O46     O    0.59068   0.37932   0.32670   1.000
    N47     N    0.90780   0.76665   0.67464   1.000
    O48     O    0.90938   0.87933   0.67329   1.000
    O49     O    0.81224   0.85305   0.67410   1.000
    N50     N    0.10504   0.26680   0.67079   1.000
    O51     O    0.10434   0.37965   0.67238   1.000
    O52     O    0.20131   0.35312   0.67029   1.000
    N53     N    0.89500   0.73321   0.32920   1.000
    O54     O    0.89570   0.62036   0.32762   1.000
    O55     O    0.79874   0.64688   0.32971   1.000
    O56     O    0.98551   0.82200   0.33069   1.000
    O57     O    0.48552   0.67801   0.33068   1.000
    O58     O    0.50181   0.17793   0.32657   1.000
    O59     O    0.51453   0.32200   0.66931   1.000
    O60     O    0.01453   0.17801   0.66931   1.000
    O61     O    0.00181   0.32208   0.32657   1.000
    O62     O    0.49823   0.82208   0.67342   1.000
    O63     O    0.99823   0.67792   0.67343   1.000
loop_
    _geom_bond_atom_site_label_1
    _geom_bond_atom_site_label_2
    _geom_bond_distance
    _geom_bond_site_symmetry_2
    _ccdc_geom_bond_type
    N8     O9        4.54803      .   S
    Zr3    O9        5.70722      .   S
    N8     O10       4.55155  1_556   S
    Zr3    O10       5.72676      .   S
    N11    O12       4.55108  1_556   S
    Zr2    O12       5.72430      .   S
    N11    O13       4.55108      .   S
    Zr2    O13       5.71034      .   S
    N14    O15       2.24616      .   S
    Zr2    O15       3.30140      .   S
    N14    O16       2.25656      .   S
    Zr3    O16       3.38252  1_545   S
    N17    O18       4.55075      .   S
    Zr4    O18       5.71072      .   S
    N17    O19       4.55105  1_556   S
    Zr4    O19       5.72428      .   S
    N20    O21       4.55146  1_556   S
    Zr5    O21       5.72677      .   S
    N20    O22       4.54807      .   S
    Zr5    O22       5.70726      .   S
    N23    O24       2.24000      .   S
    Zr1    O24       3.28529      .   S
    N23    O25       2.25333      .   S
    Zr0    O25       3.37764      .   S
    N26    O27       4.55139  1_554   S
    Zr1    O27       5.72671      .   S
    N26    O28       4.54813      .   S
    Zr1    O28       5.70732      .   S
    N29    O30       2.25657      .   S
    Zr7    O30       3.38252  1_565   S
    N29    O31       2.24619      .   S
    Zr6    O31       3.30135      .   S
    N32    O33       4.55063      .   S
    Zr6    O33       5.71092      .   S
    N32    O34       4.55102  1_554   S
    Zr6    O34       5.72424      .   S
    N35    O36       4.54826      .   S
    Zr7    O36       5.70744      .   S
    N35    O37       4.55132  1_554   S
    Zr7    O37       5.72654      .   S
    N38    O39       4.55079      .   S
    Zr0    O39       5.71077      .   S
    N38    O40       4.55101  1_554   S
    Zr0    O40       5.72423      .   S
    N41    O42       2.25334      .   S
    Zr2    O42       3.37766  1_565   S
    N41    O43       2.23970      .   S
    Zr3    O43       3.28462      .   S
    N44    O45       2.24000      .   S
    Zr5    O45       3.28528      .   S
    N44    O46       2.25333      .   S
    Zr4    O46       3.37764      .   S
    N47    O48       2.25334      .   S
    Zr6    O48       3.37765  1_545   S
    N47    O49       2.23970      .   S
    Zr7    O49       3.28461      .   S
    N50    O51       2.25653      .   S
    Zr1    O51       3.38248      .   S
    N50    O52       2.24643      .   S
    Zr0    O52       3.30187      .   S
    N53    O54       2.25653      .   S
    Zr5    O54       3.38248      .   S
    N53    O55       2.24643      .   S
    Zr4    O55       3.30187      .   S
    Zr2    O56       3.33958  1_455   S
    N53    O56       2.22976      .   S
    Zr4    O57       3.33960      .   S
    N14    O57       2.22977      .   S
    Zr3    O58       3.34274      .   S
    N44    O58       2.23032      .   S
    Zr0    O59       3.33960      .   S
    N29    O59       2.22977      .   S
    Zr6    O60       3.33957  1_655   S
    N50    O60       2.22976      .   S
    Zr5    O61       3.34247  1_655   S
    N41    O61       2.23019      .   S
    Zr7    O62       3.34274      .   S
    N23    O62       2.23032      .   S
    Zr1    O63       3.34247  1_455   S
    N47    O63       2.23019      .   S
