# CIF file generated by openbabel 2.4.90, see http://openbabel.sf.net
data_I
_chemical_name_common ''
_cell_length_a 14.926
_cell_length_b 19.994
_cell_length_c 20.525
_cell_angle_alpha 89.998
_cell_angle_beta 94.364
_cell_angle_gamma 89.993
_space_group_name_H-M_alt 'P 1'
_space_group_name_Hall 'P 1'
loop_
    _symmetry_equiv_pos_as_xyz
    x,y,z
loop_
    _atom_site_label
    _atom_site_type_symbol
    _atom_site_fract_x
    _atom_site_fract_y
    _atom_site_fract_z
    _atom_site_occupancy
    Zr0     Zr   0.37652   0.45358   0.66742   1.000
    Zr1     Zr   0.13735   0.54701   0.67194   1.000
    Zr2     Zr   0.12350   0.95357   0.33259   1.000
    Zr3     Zr   0.36269   0.04703   0.32805   1.000
    Zr4     Zr   0.62352   0.54642   0.33258   1.000
    Zr5     Zr   0.86270   0.45300   0.32806   1.000
    Zr6     Zr   0.87655   0.04644   0.66741   1.000
    Zr7     Zr   0.63736   0.95298   0.67195   1.000
    N8      N    0.36458   0.03279   0.82760   1.000
    O9      O    0.36473   0.03776   0.60607   1.000
    O10     O    0.36070   0.03918   0.04903   1.000
    N11     N    0.13694   0.96732   0.83299   1.000
    O12     O    0.13059   0.96007   0.05421   1.000
    O13     O    0.13297   0.96303   0.61109   1.000
    N14     N    0.39499   0.76681   0.32919   1.000
    O15     O    0.29872   0.85313   0.32969   1.000
    O16     O    0.47071   0.66938   0.33035   1.000
    O17     O    0.39569   0.87966   0.32761   1.000
    O18     O    0.50032   0.68664   0.33101   1.000
    N19     N    0.63695   0.53267   0.83298   1.000
    O20     O    0.63299   0.53696   0.61110   1.000
    O21     O    0.63061   0.53992   0.05420   1.000
    N22     N    0.86460   0.46722   0.82761   1.000
    O23     O    0.86071   0.46084   0.04904   1.000
    O24     O    0.86474   0.46226   0.60609   1.000
    N25     N    0.40779   0.73337   0.67463   1.000
    O26     O    0.31223   0.64696   0.67409   1.000
    O27     O    0.40936   0.62068   0.67329   1.000
    O28     O    0.51303   0.81345   0.67342   1.000
    O29     O    0.48343   0.83071   0.67342   1.000
    N30     N    0.13544   0.53278   0.17238   1.000
    O31     O    0.13934   0.53917   0.95095   1.000
    O32     O    0.13530   0.53774   0.39391   1.000
    N33     N    0.60505   0.23320   0.67079   1.000
    O34     O    0.60435   0.12035   0.67238   1.000
    O35     O    0.49972   0.31337   0.66899   1.000
    O36     O    0.52934   0.33063   0.66964   1.000
    O37     O    0.70132   0.14688   0.67027   1.000
    N38     N    0.86310   0.03269   0.16701   1.000
    O39     O    0.86708   0.03698   0.38888   1.000
    O40     O    0.86945   0.03994   0.94579   1.000
    N41     N    0.63546   0.96721   0.17238   1.000
    O42     O    0.63531   0.96225   0.39391   1.000
    O43     O    0.63935   0.96083   0.95095   1.000
    N44     N    0.36309   0.46733   0.16702   1.000
    O45     O    0.36706   0.46305   0.38890   1.000
    O46     O    0.36943   0.46009   0.94580   1.000
    N47     N    0.09224   0.23336   0.32536   1.000
    O48     O    0.09067   0.12068   0.32671   1.000
    O49     O    0.18781   0.14696   0.32590   1.000
    O50     O    0.98702   0.31346   0.32657   1.000
    O51     O    0.01661   0.33071   0.32657   1.000
    N52     N    0.59225   0.26664   0.32536   1.000
    O53     O    0.68782   0.35304   0.32590   1.000
    O54     O    0.48702   0.18655   0.32657   1.000
    O55     O    0.51661   0.16930   0.32657   1.000
    O56     O    0.59068   0.37932   0.32670   1.000
    N57     N    0.90780   0.76665   0.67464   1.000
    O58     O    0.01302   0.68654   0.67343   1.000
    O59     O    0.90938   0.87933   0.67329   1.000
    O60     O    0.98344   0.66930   0.67343   1.000
    O61     O    0.81224   0.85305   0.67410   1.000
    N62     N    0.10504   0.26680   0.67079   1.000
    O63     O    0.10434   0.37965   0.67238   1.000
    O64     O    0.99973   0.18664   0.66898   1.000
    O65     O    0.02934   0.16938   0.66964   1.000
    O66     O    0.20131   0.35312   0.67029   1.000
    N67     N    0.89500   0.73321   0.32920   1.000
    O68     O    0.89570   0.62036   0.32762   1.000
    O69     O    0.00032   0.81337   0.33101   1.000
    O70     O    0.97071   0.83063   0.33036   1.000
    O71     O    0.79874   0.64688   0.32971   1.000
loop_
    _geom_bond_atom_site_label_1
    _geom_bond_atom_site_label_2
    _geom_bond_distance
    _geom_bond_site_symmetry_2
    _ccdc_geom_bond_type
    N8     O9        4.54803      .   S
    Zr3    O9        5.70722      .   S
    N8     O10       4.55155  1_556   S
    Zr3    O10       5.72676      .   S
    N11    O12       4.55108  1_556   S
    Zr2    O12       5.72430      .   S
    N11    O13       4.55108      .   S
    Zr2    O13       5.71034      .   S
    N14    O15       2.24616      .   S
    Zr2    O15       3.30140      .   S
    N14    O16       2.25117      .   S
    Zr4    O16       3.35129      .   S
    N14    O17       2.25656      .   S
    Zr3    O17       3.38252  1_545   S
    N14    O18       2.24341      .   S
    Zr4    O18       3.35136      .   S
    N19    O20       4.55075      .   S
    Zr4    O20       5.71072      .   S
    N19    O21       4.55105  1_556   S
    Zr4    O21       5.72428      .   S
    N22    O23       4.55146  1_556   S
    Zr5    O23       5.72677      .   S
    N22    O24       4.54807      .   S
    Zr5    O24       5.70726      .   S
    N25    O26       2.24000      .   S
    Zr1    O26       3.28529      .   S
    N25    O27       2.25333      .   S
    Zr0    O27       3.37764      .   S
    N25    O28       2.24460      .   S
    Zr7    O28       3.35212      .   S
    N25    O29       2.25109      .   S
    Zr7    O29       3.35680      .   S
    N30    O31       4.55139  1_554   S
    Zr1    O31       5.72671      .   S
    N30    O32       4.54813      .   S
    Zr1    O32       5.70732      .   S
    N33    O34       2.25657      .   S
    Zr7    O34       3.38252  1_565   S
    N33    O35       2.24342      .   S
    Zr0    O35       3.35136      .   S
    N33    O36       2.25116      .   S
    Zr0    O36       3.35129      .   S
    N33    O37       2.24619      .   S
    Zr6    O37       3.30135      .   S
    N38    O39       4.55063      .   S
    Zr6    O39       5.71092      .   S
    N38    O40       4.55102  1_554   S
    Zr6    O40       5.72424      .   S
    N41    O42       4.54826      .   S
    Zr7    O42       5.70744      .   S
    N41    O43       4.55132  1_554   S
    Zr7    O43       5.72654      .   S
    N44    O45       4.55079      .   S
    Zr0    O45       5.71077      .   S
    N44    O46       4.55101  1_554   S
    Zr0    O46       5.72423      .   S
    N47    O48       2.25334      .   S
    Zr2    O48       3.37766  1_565   S
    N47    O49       2.23970      .   S
    Zr3    O49       3.28462      .   S
    N47    O50       2.24443  1_455   S
    Zr5    O50       3.35188      .   S
    N47    O51       2.25100      .   S
    Zr5    O51       3.35649  1_655   S
    N52    O53       2.24000      .   S
    Zr5    O53       3.28528      .   S
    N52    O54       2.24460      .   S
    Zr3    O54       3.35213      .   S
    N52    O55       2.25110      .   S
    Zr3    O55       3.35680      .   S
    N52    O56       2.25333      .   S
    Zr4    O56       3.37764      .   S
    N57    O58       2.24442  1_655   S
    Zr1    O58       3.35188      .   S
    N57    O59       2.25334      .   S
    Zr6    O59       3.37765  1_545   S
    N57    O60       2.25100      .   S
    Zr1    O60       3.35649  1_455   S
    N57    O61       2.23970      .   S
    Zr7    O61       3.28461      .   S
    N62    O63       2.25653      .   S
    Zr1    O63       3.38248      .   S
    N62    O64       2.24335  1_455   S
    Zr6    O64       3.35137      .   S
    N62    O65       2.25118      .   S
    Zr6    O65       3.35121  1_655   S
    N62    O66       2.24643      .   S
    Zr0    O66       3.30187      .   S
    N67    O68       2.25653      .   S
    Zr5    O68       3.38248      .   S
    N67    O69       2.24335  1_655   S
    Zr2    O69       3.35138      .   S
    N67    O70       2.25118      .   S
    Zr2    O70       3.35121  1_455   S
    N67    O71       2.24643      .   S
    Zr4    O71       3.30187      .   S
