# CIF file generated by openbabel 2.4.90, see http://openbabel.sf.net
data_I
_chemical_name_common ''
_cell_length_a 13.79
_cell_length_b 14.367
_cell_length_c 21.456
_cell_angle_alpha 90.118
_cell_angle_beta 90.021
_cell_angle_gamma 89.909
_space_group_name_H-M_alt 'P 1'
_space_group_name_Hall 'P 1'
loop_
    _symmetry_equiv_pos_as_xyz
    x,y,z
loop_
    _atom_site_label
    _atom_site_type_symbol
    _atom_site_fract_x
    _atom_site_fract_y
    _atom_site_fract_z
    _atom_site_occupancy
    C0      C    0.50809   0.24903   0.86509   1.000
    C1      C    0.51632   0.38672   0.58485   1.000
    C2      C    0.49199   0.75096   0.63418   1.000
    C3      C    0.48361   0.88640   0.91521   1.000
    C4      C    0.49192   0.75099   0.13490   1.000
    C5      C    0.48369   0.61329   0.41514   1.000
    C6      C    0.50802   0.24906   0.36581   1.000
    C7      C    0.51640   0.11362   0.08477   1.000
    C8      C    0.99193   0.74906   0.36583   1.000
    C9      C    0.98357   0.61360   0.08482   1.000
    C10     C    0.00806   0.25070   0.13480   1.000
    C11     C    0.01620   0.11318   0.41511   1.000
    C12     C    0.00807   0.25096   0.63416   1.000
    C13     C    0.01643   0.38641   0.91516   1.000
    C14     C    0.99194   0.74932   0.86518   1.000
    C15     C    0.98381   0.88683   0.58487   1.000
