# CIF file generated by openbabel 2.4.90, see http://openbabel.sf.net
data_I
_chemical_name_common ''
_cell_length_a 13.79
_cell_length_b 14.367
_cell_length_c 21.456
_cell_angle_alpha 90.118
_cell_angle_beta 90.021
_cell_angle_gamma 89.909
_space_group_name_H-M_alt 'P 1'
_space_group_name_Hall 'P 1'
loop_
    _symmetry_equiv_pos_as_xyz
    x,y,z
loop_
    _atom_site_label
    _atom_site_type_symbol
    _atom_site_fract_x
    _atom_site_fract_y
    _atom_site_fract_z
    _atom_site_occupancy
    Zr0     Zr   0.52916   0.09772   0.94156   1.000
    Zr1     Zr   0.47076   0.59784   0.55753   1.000
    Zr2     Zr   0.47085   0.90229   0.05843   1.000
    Zr3     Zr   0.52924   0.40218   0.44245   1.000
    Zr4     Zr   0.97077   0.90221   0.44246   1.000
    Zr5     Zr   0.02917   0.40223   0.05843   1.000
    Zr6     Zr   0.02924   0.09781   0.55752   1.000
    Zr7     Zr   0.97083   0.59778   0.94155   1.000
    Zr8     Zr   0.50809   0.24903   0.86509   1.000
    Zr9     Zr   0.51632   0.38672   0.58485   1.000
    Zr10    Zr   0.49199   0.75096   0.63418   1.000
    Zr11    Zr   0.48361   0.88640   0.91521   1.000
    Zr12    Zr   0.49192   0.75099   0.13490   1.000
    Zr13    Zr   0.48369   0.61329   0.41514   1.000
    Zr14    Zr   0.50802   0.24906   0.36581   1.000
    Zr15    Zr   0.51640   0.11362   0.08477   1.000
    Zr16    Zr   0.99193   0.74906   0.36583   1.000
    Zr17    Zr   0.98357   0.61360   0.08482   1.000
    Zr18    Zr   0.00806   0.25070   0.13480   1.000
    Zr19    Zr   0.01620   0.11318   0.41511   1.000
    Zr20    Zr   0.00807   0.25096   0.63416   1.000
    Zr21    Zr   0.01643   0.38641   0.91516   1.000
    Zr22    Zr   0.99194   0.74932   0.86518   1.000
    Zr23    Zr   0.98381   0.88683   0.58487   1.000
    Zr24    Zr   0.52541   0.16170   0.85596   1.000
    Zr25    Zr   0.50003   0.28607   0.91820   1.000
    Zr26    Zr   0.47561   0.46484   0.59470   1.000
    Zr27    Zr   0.54580   0.35578   0.53211   1.000
    Zr28    Zr   0.47452   0.66357   0.64250   1.000
    Zr29    Zr   0.50012   0.78908   0.58154   1.000
    Zr30    Zr   0.52442   0.96422   0.90491   1.000
    Zr31    Zr   0.45448   0.85613   0.96809   1.000
    Zr32    Zr   0.47459   0.83832   0.14402   1.000
    Zr33    Zr   0.49998   0.71395   0.08178   1.000
    Zr34    Zr   0.52439   0.53518   0.40521   1.000
    Zr35    Zr   0.45421   0.64424   0.46788   1.000
    Zr36    Zr   0.52549   0.33645   0.35740   1.000
    Zr37    Zr   0.49988   0.21094   0.41844   1.000
    Zr38    Zr   0.47559   0.03580   0.09507   1.000
    Zr39    Zr   0.54553   0.14389   0.03189   1.000
    Zr40    Zr   0.97453   0.83650   0.35748   1.000
    Zr41    Zr   0.00000   0.71095   0.41848   1.000
    Zr42    Zr   0.02430   0.53565   0.09521   1.000
    Zr43    Zr   0.95446   0.64391   0.03191   1.000
    Zr44    Zr   0.02550   0.33796   0.14393   1.000
    Zr45    Zr   0.00000   0.21363   0.08170   1.000
    Zr46    Zr   0.97545   0.03520   0.40522   1.000
    Zr47    Zr   0.04566   0.14413   0.46785   1.000
    Zr48    Zr   0.02547   0.16352   0.64250   1.000
    Zr49    Zr   0.99991   0.28906   0.58150   1.000
    Zr50    Zr   0.97571   0.46437   0.90477   1.000
    Zr51    Zr   0.04554   0.35611   0.96807   1.000
    Zr52    Zr   0.97450   0.66206   0.85606   1.000
    Zr53    Zr   0.00000   0.78638   0.91828   1.000
    Zr54    Zr   0.02455   0.96482   0.59476   1.000
    Zr55    Zr   0.95435   0.85589   0.53214   1.000
    O56     O    0.53096   0.12875   0.05833   1.000
    O57     O    0.53734   0.12081   0.98673   1.000
    O58     O    0.96902   0.62875   0.05837   1.000
    O59     O    0.96265   0.62084   0.98673   1.000
    O60     O    0.47322   0.96905   0.07675   1.000
    O61     O    0.47272   0.87031   0.10123   1.000
    O62     O    0.46266   0.87921   0.01326   1.000
    O63     O    0.02673   0.46894   0.07682   1.000
    O64     O    0.02734   0.37009   0.10118   1.000
    O65     O    0.03736   0.37917   0.01325   1.000
    O66     O    0.00403   0.23217   0.10825   1.000
    O67     O    0.49595   0.73247   0.10834   1.000
    O68     O    0.49599   0.07471   0.08992   1.000
    O69     O    0.00393   0.57462   0.09002   1.000
    O70     O    0.01678   0.29433   0.13937   1.000
    O71     O    0.48325   0.79465   0.13946   1.000
    O72     O    0.51675   0.29275   0.36161   1.000
    O73     O    0.52737   0.36931   0.39992   1.000
    O74     O    0.98323   0.79278   0.36166   1.000
    O75     O    0.97265   0.86935   0.39997   1.000
    O76     O    0.50395   0.23000   0.39213   1.000
    O77     O    0.99597   0.73000   0.39216   1.000
    O78     O    0.50404   0.57424   0.41018   1.000
    O79     O    0.52682   0.46868   0.42383   1.000
    O80     O    0.99582   0.07419   0.41017   1.000
    O81     O    0.97311   0.96870   0.42384   1.000
    O82     O    0.03093   0.12866   0.44148   1.000
    O83     O    0.46895   0.62877   0.44151   1.000
    O84     O    0.53752   0.37898   0.48728   1.000
    O85     O    0.96256   0.87905   0.48730   1.000
    O86     O    0.03745   0.12097   0.51269   1.000
    O87     O    0.46248   0.62104   0.51271   1.000
    O88     O    0.53106   0.37125   0.55848   1.000
    O89     O    0.96908   0.87136   0.55851   1.000
    O90     O    0.02690   0.03131   0.57614   1.000
    O91     O    0.02736   0.13066   0.60001   1.000
    O92     O    0.47318   0.53134   0.57612   1.000
    O93     O    0.47264   0.63070   0.60002   1.000
    O94     O    0.00399   0.27001   0.60783   1.000
    O95     O    0.49606   0.77002   0.60786   1.000
    O96     O    0.49596   0.42578   0.58978   1.000
    O97     O    0.00418   0.92583   0.58982   1.000
    O98     O    0.01677   0.20724   0.63833   1.000
    O99     O    0.48325   0.70727   0.63834   1.000
    O100    O    0.51675   0.20536   0.86053   1.000
    O101    O    0.52728   0.12971   0.89876   1.000
    O102    O    0.98322   0.70569   0.86062   1.000
    O103    O    0.97267   0.62992   0.89881   1.000
    O104    O    0.50406   0.26755   0.89165   1.000
    O105    O    0.99597   0.76785   0.89173   1.000
    O106    O    0.99607   0.42539   0.90997   1.000
    O107    O    0.97327   0.53108   0.92316   1.000
    O108    O    0.50401   0.92531   0.91006   1.000
    O109    O    0.52679   0.03097   0.92324   1.000
    O110    O    0.03098   0.37126   0.94162   1.000
    O111    O    0.46904   0.87126   0.94165   1.000
    N112    N    0.52883   0.08955   0.56031   1.000
    O113    O    0.31857   0.09083   0.56013   1.000
    O114    O    0.73953   0.09411   0.55749   1.000
    N115    N    0.02872   0.08927   0.93931   1.000
    O116    O    0.23945   0.09385   0.94193   1.000
    O117    O    0.81846   0.09074   0.93932   1.000
    N118    N    0.48606   0.81587   0.77622   1.000
    O119    O    0.49181   0.79835   0.71929   1.000
    O120    O    0.48119   0.83506   0.83235   1.000
    N121    N    0.52875   0.41058   0.06060   1.000
    O122    O    0.73948   0.40609   0.05799   1.000
    O123    O    0.31848   0.40911   0.06064   1.000
    N124    N    0.01357   0.18383   0.27611   1.000
    O125    O    0.00801   0.20206   0.21937   1.000
    O126    O    0.01843   0.16449   0.33224   1.000
    N127    N    0.01399   0.31586   0.77613   1.000
    O128    O    0.01883   0.33503   0.83229   1.000
    O129    O    0.00827   0.29837   0.71911   1.000
    N130    N    0.02880   0.41041   0.43965   1.000
    O131    O    0.23952   0.40591   0.44248   1.000
    O132    O    0.81855   0.40911   0.43984   1.000
    N133    N    0.97128   0.91074   0.06065   1.000
    O134    O    0.76056   0.90617   0.05805   1.000
    O135    O    0.18154   0.90928   0.06066   1.000
    N136    N    0.97938   0.68416   0.22378   1.000
    O137    O    0.97785   0.66499   0.16764   1.000
    O138    O    0.98767   0.70165   0.28072   1.000
    N139    N    0.51395   0.18414   0.22375   1.000
    O140    O    0.50819   0.20166   0.28068   1.000
    O141    O    0.51882   0.16496   0.16762   1.000
    N142    N    0.47118   0.91047   0.43967   1.000
    O143    O    0.68143   0.90919   0.43985   1.000
    O144    O    0.26047   0.90591   0.44249   1.000
    N145    N    0.47125   0.58943   0.93937   1.000
    O146    O    0.26052   0.59392   0.94198   1.000
    O147    O    0.68152   0.59091   0.93932   1.000
    N148    N    0.51363   0.31598   0.72380   1.000
    O149    O    0.51849   0.33534   0.66769   1.000
    O150    O    0.50808   0.29773   0.78054   1.000
    N151    N    0.97972   0.81619   0.72388   1.000
    O152    O    0.98785   0.79796   0.78061   1.000
    O153    O    0.97822   0.83553   0.66775   1.000
    N154    N    0.48637   0.68404   0.27617   1.000
    O155    O    0.49193   0.70228   0.21944   1.000
    O156    O    0.48151   0.66468   0.33229   1.000
    N157    N    0.97121   0.58960   0.56029   1.000
    O158    O    0.18145   0.59091   0.56010   1.000
    O159    O    0.76049   0.59411   0.55748   1.000
loop_
    _geom_bond_atom_site_label_1
    _geom_bond_atom_site_label_2
    _geom_bond_distance
    _geom_bond_site_symmetry_2
    _ccdc_geom_bond_type
    Zr39   O56       0.64048      .   S
    Zr15   O56       0.64048      .   S
    Zr39   O57       1.02982  1_554   S
    Zr0    O57       1.02982      .   S
    Zr43   O58       0.64042      .   S
    Zr17   O58       0.64042      .   S
    Zr43   O59       1.02997  1_554   S
    Zr7    O59       1.02997      .   S
    Zr2    O60       1.03629      .   S
    Zr38   O60       1.03629  1_545   S
    Zr2    O61       1.02795      .   S
    Zr32   O61       1.02795      .   S
    Zr2    O62       1.02992      .   S
    Zr31   O62       1.02992  1_556   S
    Zr5    O63       1.03616      .   S
    Zr42   O63       1.03616      .   S
    Zr5    O64       1.02810      .   S
    Zr44   O64       1.02810      .   S
    Zr5    O65       1.02997      .   S
    Zr51   O65       1.02997  1_556   S
    Zr45   O66       0.63080      .   S
    Zr18   O66       0.63080      .   S
    Zr33   O67       0.63087      .   S
    Zr12   O67       0.63087      .   S
    Zr15   O68       0.63609      .   S
    Zr38   O68       0.63609      .   S
    Zr17   O69       0.63609  1_655   S
    Zr42   O69       0.63609      .   S
    Zr18   O70       0.64568      .   S
    Zr44   O70       0.64568      .   S
    Zr12   O71       0.64565      .   S
    Zr32   O71       0.64565      .   S
    Zr36   O72       0.64591      .   S
    Zr14   O72       0.64591      .   S
    Zr36   O73       1.02685      .   S
    Zr3    O73       1.02685      .   S
    Zr40   O74       0.64575      .   S
    Zr16   O74       0.64575      .   S
    Zr40   O75       1.02606      .   S
    Zr4    O75       1.02606      .   S
    Zr14   O76       0.63057      .   S
    Zr37   O76       0.63057      .   S
    Zr16   O77       0.63056      .   S
    Zr41   O77       0.63056  1_455   S
    Zr34   O78       0.63583      .   S
    Zr13   O78       0.63583      .   S
    Zr34   O79       1.03678      .   S
    Zr3    O79       1.03678      .   S
    Zr46   O80       0.63580      .   S
    Zr19   O80       0.63580  1_455   S
    Zr46   O81       1.03685  1_545   S
    Zr4    O81       1.03685      .   S
    Zr19   O82       0.64057      .   S
    Zr47   O82       0.64057      .   S
    Zr13   O83       0.64053      .   S
    Zr35   O83       0.64053      .   S
    Zr3    O84       1.02492      .   S
    Zr27   O84       1.02492      .   S
    Zr4    O85       1.02502      .   S
    Zr55   O85       1.02502      .   S
    Zr47   O86       1.02491      .   S
    Zr6    O86       1.02491      .   S
    Zr35   O87       1.02482      .   S
    Zr1    O87       1.02482      .   S
    Zr27   O88       0.64053      .   S
    Zr9    O88       0.64053      .   S
    Zr55   O89       0.64048      .   S
    Zr23   O89       0.64048      .   S
    Zr6    O90       1.03685      .   S
    Zr54   O90       1.03685  1_565   S
    Zr6    O91       1.02606      .   S
    Zr48   O91       1.02606      .   S
    Zr1    O92       1.03649      .   S
    Zr26   O92       1.03649      .   S
    Zr1    O93       1.02609      .   S
    Zr28   O93       1.02609      .   S
    Zr49   O94       0.63071  1_655   S
    Zr20   O94       0.63071      .   S
    Zr29   O95       0.63067      .   S
    Zr10   O95       0.63067      .   S
    Zr9    O96       0.63569      .   S
    Zr26   O96       0.63569      .   S
    Zr23   O97       0.63580  1_655   S
    Zr54   O97       0.63580      .   S
    Zr20   O98       0.64574      .   S
    Zr48   O98       0.64574      .   S
    Zr10   O99       0.64576      .   S
    Zr28   O99       0.64576      .   S
    Zr24   O100      0.64566      .   S
    Zr8    O100      0.64566      .   S
    Zr24   O101      1.02804      .   S
    Zr0    O101      1.02804      .   S
    Zr52   O102      0.64566      .   S
    Zr22   O102      0.64566      .   S
    Zr52   O103      1.02800      .   S
    Zr7    O103      1.02800      .   S
    Zr8    O104      0.63077      .   S
    Zr25   O104      0.63077      .   S
    Zr22   O105      0.63079      .   S
    Zr53   O105      0.63079  1_455   S
    Zr50   O106      0.63609      .   S
    Zr21   O106      0.63609  1_455   S
    Zr50   O107      1.03616      .   S
    Zr7    O107      1.03616      .   S
    Zr30   O108      0.63609      .   S
    Zr11   O108      0.63609      .   S
    Zr30   O109      1.03634  1_565   S
    Zr0    O109      1.03634      .   S
    Zr21   O110      0.64042      .   S
    Zr51   O110      0.64042      .   S
    Zr11   O111      0.64048      .   S
    Zr31   O111      0.64048      .   S
    N112   O113      2.89943      .   S
    Zr6    O113      3.99145      .   S
    N112   O114      2.90707      .   S
    Zr6    O114      3.99549  1_455   S
    N115   O116      2.90724      .   S
    Zr0    O116      3.99561      .   S
    N115   O117      2.89957  1_455   S
    Zr0    O117      3.99088      .   S
    N118   O119      1.24917      .   S
    Zr10   O119      1.94763      .   S
    N118   O120      1.23674      .   S
    Zr11   O120      1.92368      .   S
    N121   O122      2.90708      .   S
    Zr5    O122      3.99517  1_455   S
    N121   O123      2.89976      .   S
    Zr5    O123      3.99121      .   S
    N124   O125      1.24805      .   S
    Zr18   O125      1.94575      .   S
    N124   O126      1.23828      .   S
    Zr19   O126      1.92656      .   S
    N127   O128      1.23727      .   S
    Zr21   O128      1.92407      .   S
    N127   O129      1.25107      .   S
    Zr20   O129      1.94440      .   S
    N130   O131      2.90709      .   S
    Zr3    O131      3.99560      .   S
    N130   O132      2.89937  1_455   S
    Zr3    O132      3.99135      .   S
    N133   O134      2.90723      .   S
    Zr2    O134      3.99561      .   S
    N133   O135      2.89958  1_655   S
    Zr2    O135      3.99088      .   S
    N136   O137      1.23513      .   S
    Zr17   O137      1.92449      .   S
    N136   O138      1.25203      .   S
    Zr16   O138      1.94861      .   S
    N139   O140      1.24916      .   S
    Zr14   O140      1.94812      .   S
    N139   O141      1.23660      .   S
    Zr15   O141      1.92354      .   S
    N142   O143      2.89943      .   S
    Zr4    O143      3.99146      .   S
    N142   O144      2.90707      .   S
    Zr4    O144      3.99549  1_655   S
    N145   O146      2.90708      .   S
    Zr7    O146      3.99517  1_655   S
    N145   O147      2.89976      .   S
    Zr7    O147      3.99122      .   S
    N148   O149      1.23807      .   S
    Zr9    O149      1.92628      .   S
    N148   O150      1.24810      .   S
    Zr8    O150      1.94581      .   S
    N151   O152      1.25069      .   S
    Zr22   O152      1.94650      .   S
    N151   O153      1.23669      .   S
    Zr23   O153      1.92791      .   S
    N154   O155      1.24798      .   S
    Zr12   O155      1.94559      .   S
    N154   O156      1.23824      .   S
    Zr13   O156      1.92645      .   S
    N157   O158      2.89937  1_655   S
    Zr1    O158      3.99134      .   S
    N157   O159      2.90708      .   S
    Zr1    O159      3.99560      .   S
