# CIF file generated by openbabel 2.4.90, see http://openbabel.sf.net
data_I
_chemical_name_common ''
_cell_length_a 15.375
_cell_length_b 15.377
_cell_length_c 17.986
_cell_angle_alpha 95.482
_cell_angle_beta 96.329
_cell_angle_gamma 94.366
_space_group_name_H-M_alt 'P 1'
_space_group_name_Hall 'P 1'
loop_
    _symmetry_equiv_pos_as_xyz
    x,y,z
loop_
    _atom_site_label
    _atom_site_type_symbol
    _atom_site_fract_x
    _atom_site_fract_y
    _atom_site_fract_z
    _atom_site_occupancy
    H0      H    0.03192   0.29384   0.12379   1.000
    H1      H    0.04319   0.45291   0.12305   1.000
    H2      H    0.94258   0.42138   0.88708   1.000
    H3      H    0.93774   0.26064   0.88839   1.000
    H4      H    0.99590   0.70511   0.88065   1.000
    H5      H    0.99046   0.54522   0.88174   1.000
    H6      H    0.01806   0.57824   0.12470   1.000
    H7      H    0.02798   0.73864   0.12174   1.000
    C8      C    0.98510   0.26634   0.00000   1.000
    C9      C    0.01241   0.32195   0.07185   1.000
    C10     C    0.01796   0.41242   0.07100   1.000
    C11     C    0.99483   0.45131   0.00000   1.000
    C12     C    0.96398   0.39445   0.93921   1.000
    C13     C    0.95997   0.30383   0.93958   1.000
    C14     C    0.01345   0.73257   0.00121   1.000
    C15     C    0.00000   0.67680   0.93399   1.000
    C16     C    0.99850   0.58632   0.93523   1.000
    C17     C    0.00317   0.54773   0.00340   1.000
    C18     C    0.01514   0.60486   0.07058   1.000
    C19     C    0.02067   0.69534   0.06951   1.000
loop_
    _geom_bond_atom_site_label_1
    _geom_bond_atom_site_label_2
    _geom_bond_distance
    _geom_bond_site_symmetry_2
    _ccdc_geom_bond_type
    C8     C9        1.48060  1_655   S
    C8     C13       1.31290  1_554   S
    C11    C17       1.47321  1_655   S
    C11    C10       1.48088  1_655   S
    C11    C12       1.35086  1_554   S
    C14    C19       1.40116      .   S
    C14    C15       1.39992  1_554   S
    C17    C18       1.41033      .   S
    C17    C16       1.40952  1_454   S
    C19    C18       1.38952      .   S
    C19    H7        1.08823      .   S
    C18    H6        1.08921      .   S
    C10    C9        1.38894      .   S
    C10    H1        1.08916      .   S
    C9     H0        1.08839      .   S
    H4     C15       1.08836  1_655   S
    H5     C16       1.08910      .   S
    H2     C12       1.08891      .   S
    H3     C13       1.08856      .   S
    C15    C16       1.39202  1_455   S
    C12    C13       1.39078      .   S
