# CIF file generated by openbabel 2.4.90, see http://openbabel.sf.net
data_I
_chemical_name_common ''
_cell_length_a 15.375
_cell_length_b 15.377
_cell_length_c 17.986
_cell_angle_alpha 95.482
_cell_angle_beta 96.329
_cell_angle_gamma 94.366
_space_group_name_H-M_alt 'P 1'
_space_group_name_Hall 'P 1'
loop_
    _symmetry_equiv_pos_as_xyz
    x,y,z
loop_
    _atom_site_label
    _atom_site_type_symbol
    _atom_site_fract_x
    _atom_site_fract_y
    _atom_site_fract_z
    _atom_site_occupancy
    N0      N    0.99852   0.00128   0.50194   1.000
    N1      N    0.76953   0.16891   0.67160   1.000
    N2      N    0.78714   0.66174   0.17517   1.000
    N3      N    0.49954   0.99148   0.99764   1.000
    N4      N    0.26534   0.66057   0.67154   1.000
    N5      N    0.21255   0.33492   0.82540   1.000
    N6      N    0.23190   0.82621   0.32918   1.000
    N7      N    0.74009   0.33615   0.32937   1.000
    Zr8     Zr   0.23878   0.32752   0.32856   1.000
    O9      O    0.22970   0.32642   0.16795   1.000
    O10     O    0.23385   0.33221   0.48712   1.000
    O11     O    0.05914   0.32944   0.32681   1.000
    O12     O    0.41947   0.33207   0.33083   1.000
    O13     O    0.23728   0.50694   0.32960   1.000
    O14     O    0.23536   0.14692   0.32798   1.000
    Zr15    Zr   0.76626   0.66806   0.67261   1.000
    O16     O    0.77456   0.66886   0.83280   1.000
    O17     O    0.94606   0.66709   0.67369   1.000
    O18     O    0.76755   0.84852   0.67373   1.000
    O19     O    0.58577   0.66345   0.67065   1.000
    O20     O    0.76717   0.48842   0.67092   1.000
    O21     O    0.76936   0.66399   0.51413   1.000
    Zr22    Zr   0.99838   0.01273   0.00113   1.000
    O23     O    0.17938   0.00800   0.00178   1.000
    O24     O    0.00062   0.00982   0.16061   1.000
    O25     O    0.99686   0.00359   0.84239   1.000
    O26     O    0.81864   0.00047   0.99769   1.000
loop_
    _geom_bond_atom_site_label_1
    _geom_bond_atom_site_label_2
    _geom_bond_distance
    _geom_bond_site_symmetry_2
    _ccdc_geom_bond_type
    Zr8    O9        2.87514      .   S
    N5     O9        6.15183  1_556   S
    Zr8    O10       2.85544      .   S
    N5     O10       6.12543      .   S
    Zr8    O11       2.76098      .   S
    N7     O11       4.91953  1_655   S
    Zr8    O12       2.76934      .   S
    N7     O12       4.92827      .   S
    Zr8    O13       2.75907      .   S
    N6     O13       4.91721      .   S
    Zr8    O14       2.77254      .   S
    N6     O14       4.92989  1_565   S
    Zr15   O16       2.86867      .   S
    N2     O16       6.15136  1_554   S
    Zr15   O17       2.76349      .   S
    N4     O17       4.92198  1_455   S
    Zr15   O18       2.77172      .   S
    N1     O18       4.92819  1_545   S
    Zr15   O19       2.76683      .   S
    N4     O19       4.92516      .   S
    Zr15   O20       2.76066      .   S
    N1     O20       4.91718      .   S
    Zr15   O21       2.85082      .   S
    N2     O21       6.12961      .   S
    Zr22   O23       2.78808  1_655   S
    N3     O23       4.95670  1_566   S
    Zr22   O24       2.86953  1_655   S
    N0     O24       6.15652  1_655   S
    Zr22   O25       2.84255  1_554   S
    N0     O25       6.12301      .   S
    Zr22   O26       2.74911  1_554   S
    N3     O26       4.89736  1_565   S
