# CIF file generated by openbabel 2.4.90, see http://openbabel.sf.net
data_I
_chemical_name_common ''
_cell_length_a 13.273
_cell_length_b 14.197
_cell_length_c 17.285
_cell_angle_alpha 66.122
_cell_angle_beta 87.262
_cell_angle_gamma 89.829
_space_group_name_H-M_alt 'P 1'
_space_group_name_Hall 'P 1'
loop_
    _symmetry_equiv_pos_as_xyz
    x,y,z
loop_
    _atom_site_label
    _atom_site_type_symbol
    _atom_site_fract_x
    _atom_site_fract_y
    _atom_site_fract_z
    _atom_site_occupancy
    Zn0     Zn   0.89783   0.44378   0.29429   1.000
    Zn1     Zn   0.78103   0.58863   0.16452   1.000
    Zn2     Zn   0.40457   0.98435   0.25804   1.000
    Zn3     Zn   0.73360   0.15613   0.60968   1.000
    Zn4     Zn   0.10207   0.55613   0.70608   1.000
    Zn5     Zn   0.22178   0.41128   0.83588   1.000
    Zn6     Zn   0.59557   0.01558   0.74333   1.000
    Zn7     Zn   0.26659   0.84362   0.39145   1.000
loop_
    _geom_bond_atom_site_label_1
    _geom_bond_atom_site_label_2
    _geom_bond_distance
    _geom_bond_site_symmetry_2
    _ccdc_geom_bond_type
    Zn1    Zn0       2.87092      .   S
