# CIF file generated by openbabel 2.4.90, see http://openbabel.sf.net
data_I
_chemical_name_common ''
_cell_length_a 13.273
_cell_length_b 14.197
_cell_length_c 17.285
_cell_angle_alpha 66.122
_cell_angle_beta 87.262
_cell_angle_gamma 89.829
_space_group_name_H-M_alt 'P 1'
_space_group_name_Hall 'P 1'
loop_
    _symmetry_equiv_pos_as_xyz
    x,y,z
loop_
    _atom_site_label
    _atom_site_type_symbol
    _atom_site_fract_x
    _atom_site_fract_y
    _atom_site_fract_z
    _atom_site_occupancy
    Zr0     Zr   0.26659   0.84362   0.39145   1.000
    Zr1     Zr   0.89783   0.44378   0.29429   1.000
    Zr2     Zr   0.78103   0.58863   0.16452   1.000
    Zr3     Zr   0.40457   0.98435   0.25804   1.000
    Zr4     Zr   0.73360   0.15613   0.60968   1.000
    Zr5     Zr   0.10207   0.55613   0.70608   1.000
    Zr6     Zr   0.22178   0.41128   0.83588   1.000
    Zr7     Zr   0.59557   0.01558   0.74333   1.000
    O8      O    0.83943   0.51621   0.22941   1.000
    N9      N    0.14942   0.03457   0.77652   1.000
    O10     O    0.99005   0.83854   0.95611   1.000
    O11     O    0.03912   0.27721   0.01788   1.000
    O12     O    0.24920   0.99781   0.00323   1.000
    O13     O    0.25348   0.03093   0.52851   1.000
    N14     N    0.66351   0.43595   0.77160   1.000
    O15     O    0.48960   0.61416   0.59595   1.000
    O16     O    0.54628   0.67275   0.53205   1.000
    N17     N    0.33662   0.56352   0.22863   1.000
    O18     O    0.45380   0.32690   0.46865   1.000
    O19     O    0.51058   0.38542   0.40473   1.000
    N20     N    0.85152   0.96470   0.22437   1.000
    O21     O    0.74715   0.96879   0.47256   1.000
    O22     O    0.01228   0.16041   0.04440   1.000
    O23     O    0.75135   0.00192   0.99793   1.000
    O24     O    0.96225   0.72208   0.98289   1.000
    O25     O    0.28951   0.49882   0.02703   1.000
    O26     O    0.56230   0.23017   0.00431   1.000
    O27     O    0.71134   0.50142   0.97311   1.000
    O28     O    0.24446   0.56422   0.46555   1.000
    O29     O    0.94884   0.77923   0.45528   1.000
    O30     O    0.43779   0.76941   0.99637   1.000
    O31     O    0.75556   0.43559   0.53463   1.000
    O32     O    0.05099   0.22003   0.54574   1.000
    O33     O    0.80356   0.04967   0.42261   1.000
    O34     O    0.19696   0.94988   0.57834   1.000
loop_
    _geom_bond_atom_site_label_1
    _geom_bond_atom_site_label_2
    _geom_bond_distance
    _geom_bond_site_symmetry_2
    _ccdc_geom_bond_type
    Zr2    O8        1.43546      .   S
    Zr1    O8        1.43546      .   S
    N9     O10       3.77751  1_445   S
    Zr2    O10       4.69238  1_554   S
    N9     O11       6.51419  1_556   S
    Zr1    O11       6.34052  1_655   S
    N9     O12       4.02735  1_546   S
    Zr3    O12       4.88583      .   S
    N9     O13       4.46102      .   S
    Zr3    O13       5.28340  1_565   S
    N14    O15       3.91969      .   S
    Zr0    O15       4.84640      .   S
    N14    O16       4.49262      .   S
    Zr3    O16       5.42016      .   S
    N17    O18       4.49646      .   S
    Zr7    O18       5.42513      .   S
    N17    O19       3.92362      .   S
    Zr4    O19       4.84950      .   S
    N20    O21       4.46766      .   S
    Zr7    O21       5.29177  1_545   S
    N20    O22       3.78864  1_665   S
    Zr6    O22       4.70296  1_556   S
    N20    O23       4.02314  1_564   S
    Zr7    O23       4.88420      .   S
    N20    O24       6.51694  1_554   S
    Zr5    O24       6.33556  1_455   S
    Zr6    O25       4.10902  1_556   S
    N17    O25       4.02249      .   S
    Zr3    O26       4.75097  1_565   S
    N14    O26       4.06360  1_556   S
    Zr2    O27       4.11711  1_554   S
    N14    O27       4.02921      .   S
    Zr5    O28       4.44225      .   S
    N17    O28       4.22156      .   S
    Zr5    O29       4.75919  1_455   S
    N20    O29       4.06144      .   S
    Zr7    O30       4.74585  1_545   S
    N17    O30       4.05870  1_554   S
    Zr1    O31       4.43821      .   S
    N14    O31       4.22011      .   S
    Zr1    O32       4.76888  1_655   S
    N9     O32       4.06517      .   S
    Zr4    O33       4.15492      .   S
    N20    O33       4.09083  1_565   S
    Zr0    O34       4.14932      .   S
    N9     O34       4.08679  1_545   S
