# CIF file generated by openbabel 2.4.90, see http://openbabel.sf.net
data_I
_chemical_name_common ''
_cell_length_a 22.684
_cell_length_b 12.99
_cell_length_c 12.986
_cell_angle_alpha 117.495
_cell_angle_beta 94.955
_cell_angle_gamma 85.039
_space_group_name_H-M_alt 'P 1'
_space_group_name_Hall 'P 1'
loop_
    _symmetry_equiv_pos_as_xyz
    x,y,z
loop_
    _atom_site_label
    _atom_site_type_symbol
    _atom_site_fract_x
    _atom_site_fract_y
    _atom_site_fract_z
    _atom_site_occupancy
    Zr0     Zr   0.43508   0.49516   0.97368   1.000
    Zr1     Zr   0.93509   0.49516   0.97368   1.000
    Zr2     Zr   0.31492   0.97366   0.49510   1.000
    Zr3     Zr   0.81492   0.97366   0.49510   1.000
    Zr4     Zr   0.06492   0.50484   0.02633   1.000
    Zr5     Zr   0.56492   0.50484   0.02633   1.000
    Zr6     Zr   0.18509   0.02634   0.50485   1.000
    Zr7     Zr   0.68509   0.02634   0.50485   1.000
    Zr8     Zr   0.47486   0.66292   0.20860   1.000
    Zr9     Zr   0.97486   0.66292   0.20860   1.000
    Zr10    Zr   0.01029   0.65991   0.93488   1.000
    Zr11    Zr   0.51029   0.65991   0.93488   1.000
    Zr12    Zr   0.27516   0.20865   0.66292   1.000
    Zr13    Zr   0.77516   0.20865   0.66292   1.000
    Zr14    Zr   0.23970   0.93498   0.66002   1.000
    Zr15    Zr   0.73971   0.93498   0.66002   1.000
    Zr16    Zr   0.02514   0.33708   0.79134   1.000
    Zr17    Zr   0.52515   0.33708   0.79134   1.000
    Zr18    Zr   0.48971   0.34009   0.06510   1.000
    Zr19    Zr   0.98972   0.34009   0.06510   1.000
    Zr20    Zr   0.22485   0.79134   0.33709   1.000
    Zr21    Zr   0.72485   0.79134   0.33709   1.000
    Zr22    Zr   0.26030   0.06502   0.33999   1.000
    Zr23    Zr   0.76030   0.06502   0.33999   1.000
    Zr24    Zr   0.05996   0.63304   0.97241   1.000
    Zr25    Zr   0.55996   0.63305   0.97240   1.000
    Zr26    Zr   0.46077   0.61729   0.92907   1.000
    Zr27    Zr   0.96077   0.61729   0.92907   1.000
    Zr28    Zr   0.02815   0.63274   0.18066   1.000
    Zr29    Zr   0.52815   0.63274   0.18066   1.000
    Zr30    Zr   0.42840   0.62091   0.14512   1.000
    Zr31    Zr   0.92840   0.62092   0.14512   1.000
    Zr32    Zr   0.19004   0.97251   0.63317   1.000
    Zr33    Zr   0.69004   0.97252   0.63317   1.000
    Zr34    Zr   0.28922   0.92913   0.61736   1.000
    Zr35    Zr   0.78922   0.92913   0.61736   1.000
    Zr36    Zr   0.22186   0.18067   0.63274   1.000
    Zr37    Zr   0.72186   0.18067   0.63274   1.000
    Zr38    Zr   0.32161   0.14511   0.62089   1.000
    Zr39    Zr   0.82162   0.14511   0.62089   1.000
    Zr40    Zr   0.44005   0.36695   0.02759   1.000
    Zr41    Zr   0.94005   0.36695   0.02760   1.000
    Zr42    Zr   0.03923   0.38271   0.07094   1.000
    Zr43    Zr   0.53924   0.38271   0.07094   1.000
    Zr44    Zr   0.47185   0.36726   0.81935   1.000
    Zr45    Zr   0.97185   0.36726   0.81935   1.000
    Zr46    Zr   0.07160   0.37908   0.85489   1.000
    Zr47    Zr   0.57160   0.37908   0.85489   1.000
    Zr48    Zr   0.30997   0.02748   0.36683   1.000
    Zr49    Zr   0.80997   0.02748   0.36683   1.000
    Zr50    Zr   0.21078   0.07087   0.38265   1.000
    Zr51    Zr   0.71078   0.07087   0.38265   1.000
    Zr52    Zr   0.27814   0.81933   0.36727   1.000
    Zr53    Zr   0.77814   0.81933   0.36727   1.000
    Zr54    Zr   0.17839   0.85489   0.37911   1.000
    Zr55    Zr   0.67839   0.85489   0.37910   1.000
    O56     O    0.05208   0.44377   0.04863   1.000
    O57     O    0.04654   0.56879   0.10349   1.000
    O58     O    0.06826   0.44196   0.94061   1.000
    O59     O    0.06244   0.56894   0.99937   1.000
    O60     O    0.55208   0.44377   0.04863   1.000
    O61     O    0.54654   0.56879   0.10349   1.000
    O62     O    0.56826   0.44196   0.94061   1.000
    O63     O    0.56244   0.56894   0.99936   1.000
    O64     O    0.46488   0.35352   0.04634   1.000
    O65     O    0.43756   0.43105   0.00063   1.000
    O66     O    0.96488   0.35352   0.04635   1.000
    O67     O    0.93757   0.43105   0.00064   1.000
    O68     O    0.01448   0.36140   0.06802   1.000
    O69     O    0.51447   0.36140   0.06802   1.000
    O70     O    0.45163   0.64192   0.17686   1.000
    O71     O    0.43174   0.55804   0.05940   1.000
    O72     O    0.95163   0.64192   0.17686   1.000
    O73     O    0.93175   0.55804   0.05940   1.000
    O74     O    0.50151   0.64783   0.19463   1.000
    O75     O    0.00151   0.64783   0.19463   1.000
    O76     O    0.25149   0.80534   0.35218   1.000
    O77     O    0.20162   0.82312   0.35810   1.000
    O78     O    0.75150   0.80534   0.35218   1.000
    O79     O    0.70162   0.82312   0.35809   1.000
    O80     O    0.28513   0.04625   0.35341   1.000
    O81     O    0.23554   0.06795   0.36132   1.000
    O82     O    0.78513   0.04625   0.35341   1.000
    O83     O    0.73554   0.06794   0.36132   1.000
    O84     O    0.81244   0.00057   0.43096   1.000
    O85     O    0.31244   0.00057   0.43096   1.000
    O86     O    0.79653   0.89649   0.43118   1.000
    O87     O    0.29653   0.89649   0.43118   1.000
    O88     O    0.68174   0.94061   0.44197   1.000
    O89     O    0.18174   0.94062   0.44198   1.000
    O90     O    0.19793   0.04860   0.44375   1.000
    O91     O    0.69793   0.04860   0.44375   1.000
    O92     O    0.80207   0.95139   0.55623   1.000
    O93     O    0.81827   0.05938   0.55799   1.000
    O94     O    0.30207   0.95139   0.55623   1.000
    O95     O    0.31826   0.05938   0.55799   1.000
    O96     O    0.20347   0.10350   0.56879   1.000
    O97     O    0.18756   0.99943   0.56901   1.000
    O98     O    0.70348   0.10350   0.56879   1.000
    O99     O    0.68756   0.99943   0.56901   1.000
    O100    O    0.76447   0.93205   0.63869   1.000
    O101    O    0.26446   0.93205   0.63869   1.000
    O102    O    0.29839   0.17688   0.64190   1.000
    O103    O    0.79839   0.17688   0.64190   1.000
    O104    O    0.74851   0.19466   0.64783   1.000
    O105    O    0.24851   0.19466   0.64783   1.000
    O106    O    0.71487   0.95375   0.64659   1.000
    O107    O    0.21487   0.95375   0.64659   1.000
    O108    O    0.49850   0.35217   0.80534   1.000
    O109    O    0.54838   0.35808   0.82311   1.000
    O110    O    0.99850   0.35217   0.80534   1.000
    O111    O    0.04837   0.35808   0.82311   1.000
    O112    O    0.95347   0.43121   0.89651   1.000
    O113    O    0.45347   0.43121   0.89651   1.000
    O114    O    0.98553   0.63860   0.93197   1.000
    O115    O    0.94793   0.55622   0.95137   1.000
    O116    O    0.48553   0.63860   0.93197   1.000
    O117    O    0.44793   0.55622   0.95137   1.000
    O118    O    0.03512   0.64648   0.95364   1.000
    O119    O    0.53512   0.64648   0.95364   1.000
    O120    O    0.50000   0.50000   0.00000   1.000
    O121    O    0.00000   0.50000   0.00000   1.000
    O122    O    0.25000   1.00000   0.49997   1.000
    O123    O    0.75000   1.00000   0.49997   1.000
    N124    N    0.23140   0.34470   0.14952   1.000
    O125    O    0.17009   0.43023   0.10594   1.000
    O126    O    0.24540   0.21522   0.22207   1.000
    O127    O    0.22604   0.53764   0.21964   1.000
    N128    N    0.26860   0.65530   0.85048   1.000
    O129    O    0.27397   0.46236   0.78036   1.000
    O130    O    0.25461   0.78478   0.77794   1.000
    O131    O    0.32991   0.56977   0.89405   1.000
    N132    N    0.76860   0.65530   0.85047   1.000
    O133    O    0.77397   0.46236   0.78034   1.000
    O134    O    0.75461   0.78478   0.77793   1.000
    O135    O    0.82991   0.56977   0.89404   1.000
    N136    N    0.48139   0.85046   0.65531   1.000
    O137    O    0.49539   0.77787   0.78475   1.000
    O138    O    0.47604   0.78036   0.46236   1.000
    O139    O    0.42009   0.89404   0.56977   1.000
    N140    N    0.73140   0.34470   0.14952   1.000
    O141    O    0.74540   0.21522   0.22207   1.000
    O142    O    0.72604   0.53764   0.21965   1.000
    O143    O    0.67010   0.43023   0.10596   1.000
    N144    N    0.51861   0.14953   0.34468   1.000
    O145    O    0.50462   0.22212   0.21524   1.000
    O146    O    0.52397   0.21964   0.53762   1.000
    O147    O    0.57992   0.10596   0.43020   1.000
    N148    N    0.01861   0.14953   0.34465   1.000
    O149    O    0.02397   0.21964   0.53760   1.000
    O150    O    0.07991   0.10596   0.43019   1.000
    O151    O    0.00462   0.22212   0.21522   1.000
    N152    N    0.98139   0.85046   0.65531   1.000
    O153    O    0.97604   0.78036   0.46236   1.000
    O154    O    0.99539   0.77788   0.78475   1.000
    O155    O    0.92009   0.89404   0.56977   1.000
loop_
    _geom_bond_atom_site_label_1
    _geom_bond_atom_site_label_2
    _geom_bond_distance
    _geom_bond_site_symmetry_2
    _ccdc_geom_bond_type
    Zr4    O56       1.03184      .   S
    Zr42   O56       1.03184      .   S
    Zr4    O57       1.05440      .   S
    Zr28   O57       1.05440      .   S
    Zr4    O58       1.03748  1_554   S
    Zr46   O58       1.03748      .   S
    Zr4    O59       1.03769  1_554   S
    Zr24   O59       1.03769      .   S
    Zr5    O60       1.03186      .   S
    Zr43   O60       1.03186      .   S
    Zr5    O61       1.05439      .   S
    Zr29   O61       1.05439      .   S
    Zr5    O62       1.03748  1_554   S
    Zr47   O62       1.03748      .   S
    Zr5    O63       1.03775  1_554   S
    Zr25   O63       1.03775      .   S
    Zr40   O64       0.63691      .   S
    Zr18   O64       0.63691      .   S
    Zr40   O65       1.03766      .   S
    Zr0    O65       1.03766  1_556   S
    Zr41   O66       0.63689      .   S
    Zr19   O66       0.63689      .   S
    Zr41   O67       1.03769      .   S
    Zr1    O67       1.03769  1_556   S
    Zr19   O68       0.63794  1_655   S
    Zr42   O68       0.63794      .   S
    Zr18   O69       0.63798      .   S
    Zr43   O69       0.63798      .   S
    Zr30   O70       0.63677      .   S
    Zr8    O70       0.63677      .   S
    Zr30   O71       1.03748      .   S
    Zr0    O71       1.03748  1_556   S
    Zr31   O72       0.63677      .   S
    Zr9    O72       0.63677      .   S
    Zr31   O73       1.03748      .   S
    Zr1    O73       1.03748  1_556   S
    Zr29   O74       0.63431      .   S
    Zr8    O74       0.63431      .   S
    Zr28   O75       0.63426      .   S
    Zr9    O75       0.63426  1_655   S
    Zr20   O76       0.63440      .   S
    Zr52   O76       0.63440      .   S
    Zr20   O77       0.63695      .   S
    Zr54   O77       0.63695      .   S
    Zr21   O78       0.63441      .   S
    Zr53   O78       0.63441      .   S
    Zr21   O79       0.63692      .   S
    Zr55   O79       0.63692      .   S
    Zr22   O80       0.63695      .   S
    Zr48   O80       0.63695      .   S
    Zr22   O81       0.63802      .   S
    Zr50   O81       0.63802      .   S
    Zr23   O82       0.63694      .   S
    Zr49   O82       0.63694      .   S
    Zr23   O83       0.63803      .   S
    Zr51   O83       0.63803      .   S
    Zr49   O84       1.03748      .   S
    Zr3    O84       1.03748  1_565   S
    Zr48   O85       1.03748      .   S
    Zr2    O85       1.03748  1_565   S
    Zr53   O86       1.05448      .   S
    Zr3    O86       1.05448      .   S
    Zr52   O87       1.05447      .   S
    Zr2    O87       1.05447      .   S
    Zr55   O88       1.03771      .   S
    Zr7    O88       1.03771  1_545   S
    Zr54   O89       1.03769      .   S
    Zr6    O89       1.03769  1_545   S
    Zr50   O90       1.03176      .   S
    Zr6    O90       1.03176      .   S
    Zr51   O91       1.03176      .   S
    Zr7    O91       1.03176      .   S
    Zr3    O92       1.03211      .   S
    Zr35   O92       1.03211      .   S
    Zr3    O93       1.03779  1_565   S
    Zr39   O93       1.03779      .   S
    Zr2    O94       1.03210      .   S
    Zr34   O94       1.03210      .   S
    Zr2    O95       1.03780  1_565   S
    Zr38   O95       1.03780      .   S
    Zr6    O96       1.05460      .   S
    Zr36   O96       1.05460      .   S
    Zr6    O97       1.03780  1_545   S
    Zr32   O97       1.03780      .   S
    Zr7    O98       1.05461      .   S
    Zr37   O98       1.05461      .   S
    Zr7    O99       1.03779  1_545   S
    Zr33   O99       1.03779      .   S
    Zr35   O100      0.63802      .   S
    Zr15   O100      0.63802      .   S
    Zr34   O101      0.63803      .   S
    Zr14   O101      0.63803      .   S
    Zr38   O102      0.63695      .   S
    Zr12   O102      0.63695      .   S
    Zr39   O103      0.63695      .   S
    Zr13   O103      0.63695      .   S
    Zr37   O104      0.63440      .   S
    Zr13   O104      0.63440      .   S
    Zr36   O105      0.63441      .   S
    Zr12   O105      0.63441      .   S
    Zr33   O106      0.63697      .   S
    Zr15   O106      0.63697      .   S
    Zr32   O107      0.63696      .   S
    Zr14   O107      0.63696      .   S
    Zr17   O108      0.63441      .   S
    Zr44   O108      0.63441      .   S
    Zr17   O109      0.63694      .   S
    Zr47   O109      0.63694      .   S
    Zr16   O110      0.63436  1_455   S
    Zr45   O110      0.63436      .   S
    Zr16   O111      0.63694      .   S
    Zr46   O111      0.63694      .   S
    Zr45   O112      1.05440      .   S
    Zr1    O112      1.05440      .   S
    Zr44   O113      1.05440      .   S
    Zr0    O113      1.05440      .   S
    Zr27   O114      0.63798      .   S
    Zr10   O114      0.63798  1_455   S
    Zr27   O115      1.03183      .   S
    Zr1    O115      1.03183      .   S
    Zr26   O116      0.63802      .   S
    Zr11   O116      0.63802      .   S
    Zr26   O117      1.03185      .   S
    Zr0    O117      1.03185      .   S
    Zr10   O118      0.63697      .   S
    Zr24   O118      0.63697      .   S
    Zr11   O119      0.63693      .   S
    Zr25   O119      0.63693      .   S
    Zr0    O120      1.48275  1_556   S
    Zr5    O120      1.48275      .   S
    Zr1    O121      1.48270  1_656   S
    Zr4    O121      1.48270      .   S
    Zr2    O122      1.48268      .   S
    Zr6    O122      1.48268  1_545   S
    Zr3    O123      1.48269      .   S
    Zr7    O123      1.48269  1_545   S
    N124   O125      1.91466      .   S
    Zr4    O125      2.79274      .   S
    N124   O126      2.26644      .   S
    Zr22   O126      2.97000      .   S
    N124   O127      2.23251      .   S
    Zr20   O127      2.92212      .   S
    N128   O129      2.23254      .   S
    Zr12   O129      2.92214      .   S
    N128   O130      2.26638      .   S
    Zr14   O130      2.96993      .   S
    N128   O131      1.91461      .   S
    Zr0    O131      2.79287      .   S
    N132   O133      2.23252      .   S
    Zr13   O133      2.92214      .   S
    N132   O134      2.26637      .   S
    Zr15   O134      2.96991      .   S
    N132   O135      1.91462      .   S
    Zr1    O135      2.79287      .   S
    N136   O137      2.26600      .   S
    Zr11   O137      2.96958      .   S
    N136   O138      2.23213      .   S
    Zr8    O138      2.92182      .   S
    N136   O139      1.91464      .   S
    Zr2    O139      2.79313      .   S
    N140   O141      2.26644      .   S
    Zr23   O141      2.97000      .   S
    N140   O142      2.23252      .   S
    Zr21   O142      2.92212      .   S
    N140   O143      1.91457      .   S
    Zr5    O143      2.79284      .   S
    N144   O145      2.26603      .   S
    Zr18   O145      2.96973      .   S
    N144   O146      2.23191      .   S
    Zr17   O146      2.92139      .   S
    N144   O147      1.91446      .   S
    Zr7    O147      2.79298      .   S
    N148   O149      2.23211      .   S
    Zr16   O149      2.92158      .   S
    N148   O150      1.91458      .   S
    Zr6    O150      2.79305      .   S
    N148   O151      2.26582      .   S
    Zr19   O151      2.96955  1_655   S
    N152   O153      2.23204      .   S
    Zr9    O153      2.92191      .   S
    N152   O154      2.26602      .   S
    Zr10   O154      2.96956  1_455   S
    N152   O155      1.91462      .   S
    Zr3    O155      2.79311      .   S
