# CIF file generated by openbabel 2.4.90, see http://openbabel.sf.net
data_I
_chemical_name_common ''
_cell_length_a 21.11
_cell_length_b 17.853
_cell_length_c 17.853
_cell_angle_alpha 119.977
_cell_angle_beta 89.995
_cell_angle_gamma 89.962
_space_group_name_H-M_alt 'P 1'
_space_group_name_Hall 'P 1'
loop_
    _symmetry_equiv_pos_as_xyz
    x,y,z
loop_
    _atom_site_label
    _atom_site_type_symbol
    _atom_site_fract_x
    _atom_site_fract_y
    _atom_site_fract_z
    _atom_site_occupancy
    Zn0     Zn   0.94177   0.54730   0.07787   1.000
    Zn1     Zn   0.27516   0.53068   0.45270   1.000
    Zn2     Zn   0.77515   0.53074   0.45275   1.000
    Zn3     Zn   0.10850   0.92225   0.46953   1.000
    Zn4     Zn   0.60849   0.92226   0.46957   1.000
    Zn5     Zn   0.19183   0.45265   0.92205   1.000
    Zn6     Zn   0.69183   0.45266   0.92207   1.000
    Zn7     Zn   0.02515   0.46938   0.54718   1.000
    Zn8     Zn   0.52513   0.46937   0.54719   1.000
    Zn9     Zn   0.35847   0.07785   0.53059   1.000
    Zn10    Zn   0.85845   0.07787   0.53060   1.000
    H11     H    0.49389   0.47723   0.92913   1.000
    H12     H    0.99388   0.47728   0.92913   1.000
    H13     H    0.09537   0.48974   0.70249   1.000
    H14     H    0.59535   0.48970   0.70248   1.000
    H15     H    0.41403   0.55350   0.66569   1.000
    H16     H    0.91402   0.55350   0.66566   1.000
    H17     H    0.38341   0.60111   0.81827   1.000
    H18     H    0.88340   0.60111   0.81824   1.000
    H19     H    0.07338   0.53395   0.85569   1.000
    H20     H    0.57337   0.53389   0.85568   1.000
    H21     H    0.49602   0.62754   0.98579   1.000
    H22     H    0.99600   0.62759   0.98570   1.000
    H23     H    0.41404   0.62605   0.96154   1.000
    H24     H    0.91402   0.62608   0.96152   1.000
    H25     H    0.38229   0.47289   0.84674   1.000
    H26     H    0.88229   0.47289   0.84672   1.000
    H27     H    0.37261   0.32322   0.80497   1.000
    H28     H    0.87263   0.32323   0.80497   1.000
    H29     H    0.44618   0.24756   0.85137   1.000
    H30     H    0.94620   0.24761   0.85141   1.000
    H31     H    0.40207   0.32579   0.94114   1.000
    Zn32    Zn   0.44178   0.54725   0.07780   1.000
    H33     H    0.90207   0.32583   0.94116   1.000
    H34     H    0.48179   0.34699   0.92909   1.000
    H35     H    0.98179   0.34707   0.92914   1.000
    H36     H    0.51134   0.36852   0.79327   1.000
    H37     H    0.00000   0.36857   0.79331   1.000
    H38     H    0.44804   0.36818   0.72760   1.000
    H39     H    0.94807   0.36819   0.72760   1.000
    H40     H    0.47055   0.27069   0.72376   1.000
    H41     H    0.97058   0.27072   0.72379   1.000
    H42     H    0.32727   0.45183   0.52264   1.000
    H43     H    0.82726   0.45188   0.52269   1.000
    H44     H    0.42870   0.21269   0.51019   1.000
    H45     H    0.92868   0.21273   0.51024   1.000
    H46     H    0.24741   0.11235   0.44652   1.000
    H47     H    0.74740   0.11237   0.44650   1.000
    H48     H    0.21685   0.21734   0.39884   1.000
    H49     H    0.71685   0.21737   0.39884   1.000
    H50     H    0.40678   0.32169   0.46591   1.000
    H51     H    0.90677   0.32174   0.46599   1.000
    H52     H    0.32952   0.35832   0.37233   1.000
    H53     H    0.82952   0.35837   0.37238   1.000
    H54     H    0.24753   0.33563   0.37384   1.000
    H55     H    0.74754   0.33568   0.37387   1.000
    H56     H    0.21578   0.37377   0.52709   1.000
    H57     H    0.71576   0.37381   0.52710   1.000
    H58     H    0.20593   0.48168   0.67675   1.000
    H59     H    0.70590   0.48170   0.67677   1.000
    H60     H    0.27941   0.60376   0.75221   1.000
    H61     H    0.77936   0.60377   0.75226   1.000
    H62     H    0.23524   0.61519   0.67396   1.000
    H63     H    0.73522   0.61522   0.67401   1.000
    H64     H    0.31499   0.58197   0.65267   1.000
    H65     H    0.81497   0.58200   0.65274   1.000
    H66     H    0.34472   0.42471   0.63138   1.000
    H67     H    0.84468   0.42472   0.63144   1.000
    H68     H    0.28148   0.35946   0.63196   1.000
    H69     H    0.78143   0.35947   0.63190   1.000
    H70     H    0.30391   0.45316   0.72932   1.000
    H71     H    0.80385   0.45316   0.72935   1.000
    H72     H    0.16051   0.07095   0.54814   1.000
    H73     H    0.66051   0.07095   0.54810   1.000
    H74     H    0.26215   0.29732   0.78711   1.000
    H75     H    0.76215   0.29730   0.78714   1.000
    H76     H    0.08089   0.33441   0.88790   1.000
    H77     H    0.58088   0.33443   0.88792   1.000
    H78     H    0.05021   0.18193   0.78295   1.000
    H79     H    0.55020   0.18194   0.78297   1.000
    H80     H    0.24010   0.14421   0.67809   1.000
    H81     H    0.74009   0.14419   0.67814   1.000
    H82     H    0.16276   0.01423   0.64181   1.000
    H83     H    0.66274   0.01423   0.64185   1.000
    H84     H    0.08079   0.03865   0.66467   1.000
    H85     H    0.58077   0.03866   0.66471   1.000
    H86     H    0.04886   0.15337   0.62617   1.000
    H87     H    0.54886   0.15339   0.62620   1.000
    H88     H    0.03911   0.19512   0.51820   1.000
    H89     H    0.53913   0.19512   0.51821   1.000
    H90     H    0.11276   0.14868   0.39623   1.000
    H91     H    0.61279   0.14864   0.39624   1.000
    H92     H    0.06869   0.05894   0.38471   1.000
    H93     H    0.56869   0.05893   0.38474   1.000
    H94     H    0.14840   0.07094   0.41804   1.000
    H95     H    0.64840   0.07089   0.41807   1.000
    H96     H    0.17783   0.20680   0.57527   1.000
    H97     H    0.67784   0.20676   0.57529   1.000
    H98     H    0.11449   0.27254   0.64049   1.000
    H99     H    0.61451   0.27254   0.64050   1.000
    C100    C    0.97541   0.56973   0.84991   1.000
    C101    C    0.03591   0.53904   0.81636   1.000
    C102    C    0.53589   0.53899   0.81630   1.000
    C103    C    0.45848   0.58919   0.93995   1.000
    H104    H    0.13699   0.27627   0.54600   1.000
    H105    H    0.63703   0.27624   0.54679   1.000
    H106    H    0.24385   0.52264   0.07078   1.000
    H107    H    0.74386   0.52265   0.07078   1.000
    H108    H    0.34544   0.51019   0.29731   1.000
    H109    H    0.84545   0.51022   0.29735   1.000
    H110    H    0.16420   0.44660   0.33439   1.000
    H111    H    0.66419   0.44666   0.33440   1.000
    H112    H    0.13356   0.39892   0.18180   1.000
    H113    H    0.63357   0.39894   0.18183   1.000
    H114    H    0.32343   0.46593   0.14411   1.000
    H115    H    0.82345   0.46593   0.14414   1.000
    H116    H    0.24612   0.37232   0.01413   1.000
    H117    H    0.74616   0.37234   0.01415   1.000
    H118    H    0.16415   0.37388   0.03848   1.000
    H119    H    0.66419   0.37386   0.03849   1.000
    H120    H    0.13225   0.52711   0.15325   1.000
    H121    H    0.63228   0.52709   0.15328   1.000
    H122    H    0.12246   0.67677   0.19486   1.000
    H123    H    0.62245   0.67675   0.19480   1.000
    H124    H    0.19606   0.75220   0.14828   1.000
    H125    H    0.69603   0.75220   0.14829   1.000
    H126    H    0.15196   0.67401   0.05861   1.000
    H127    H    0.65192   0.67399   0.05863   1.000
    H128    H    0.23168   0.65265   0.07060   1.000
    H129    H    0.73165   0.65265   0.07060   1.000
    H130    H    0.26118   0.63130   0.20657   1.000
    H131    H    0.76119   0.63131   0.20656   1.000
    C132    C    0.13103   0.23298   0.57342   1.000
    C133    C    0.63105   0.23296   0.57343   1.000
    C134    C    0.29906   0.48594   0.26901   1.000
    C135    C    0.79907   0.48597   0.26900   1.000
    C136    C    0.19757   0.44956   0.28952   1.000
    H137    H    0.19786   0.63186   0.27232   1.000
    H138    H    0.69789   0.63186   0.27233   1.000
    H139    H    0.22036   0.72925   0.27602   1.000
    H140    H    0.72037   0.72925   0.27601   1.000
    H141    H    0.07724   0.54814   0.47718   1.000
    H142    H    0.57721   0.54814   0.47718   1.000
    H143    H    0.17875   0.78714   0.48978   1.000
    H144    H    0.67872   0.78713   0.48980   1.000
    H145    H    0.99748   0.88796   0.55362   1.000
    H146    H    0.49746   0.88799   0.55366   1.000
    H147    H    0.46676   0.78291   0.60112   1.000
    H148    H    0.96677   0.78290   0.60110   1.000
    H149    H    0.15669   0.67803   0.53383   1.000
    H150    H    0.65665   0.67801   0.53383   1.000
    H151    H    0.07934   0.64166   0.62754   1.000
    H152    H    0.57928   0.64165   0.62755   1.000
    H153    H    0.99736   0.66446   0.62594   1.000
    H154    H    0.49730   0.66444   0.62590   1.000
    H155    H    0.46561   0.62625   0.47280   1.000
    H156    H    0.96563   0.62629   0.47283   1.000
    H157    H    0.45590   0.51842   0.32312   1.000
    H158    H    0.95590   0.51847   0.32315   1.000
    H159    H    0.02952   0.39642   0.24756   1.000
    H160    H    0.52954   0.39641   0.24756   1.000
    H161    H    0.48543   0.38485   0.32578   1.000
    H162    H    0.98539   0.38489   0.32579   1.000
    H163    H    0.06513   0.41812   0.34704   1.000
    H164    H    0.56514   0.41812   0.34705   1.000
    H165    H    0.09464   0.57539   0.36846   1.000
    H166    H    0.59461   0.57541   0.36847   1.000
    H167    H    0.03133   0.64071   0.36801   1.000
    H168    H    0.53128   0.64070   0.36800   1.000
    H169    H    0.05384   0.54705   0.27058   1.000
    H170    H    0.55382   0.54705   0.27058   1.000
    H171    H    0.41060   0.92912   0.45189   1.000
    H172    H    0.91057   0.92913   0.45188   1.000
    H173    H    0.01202   0.70239   0.21261   1.000
    H174    H    0.51202   0.70236   0.21260   1.000
    H175    H    0.33066   0.66587   0.11240   1.000
    H176    H    0.83065   0.66590   0.11237   1.000
    H177    H    0.30014   0.81849   0.21730   1.000
    H178    H    0.80011   0.81851   0.21737   1.000
    H179    H    0.49015   0.85558   0.32159   1.000
    H180    H    0.99010   0.85561   0.32161   1.000
    H181    H    0.41287   0.98581   0.35826   1.000
    H182    H    0.91281   0.98583   0.35826   1.000
    H183    H    0.33088   0.96171   0.33553   1.000
    H184    H    0.83082   0.96171   0.33555   1.000
    H185    H    0.29904   0.84677   0.37389   1.000
    H186    H    0.79900   0.84679   0.37392   1.000
    H187    H    0.28930   0.80493   0.48175   1.000
    H188    H    0.78929   0.80495   0.48180   1.000
    H189    H    0.36276   0.85135   0.60382   1.000
    H190    H    0.86278   0.85136   0.60383   1.000
    H191    H    0.31862   0.94109   0.61530   1.000
    H192    H    0.81864   0.94111   0.61533   1.000
    H193    H    0.39837   0.92912   0.58210   1.000
    H194    H    0.89838   0.92912   0.58209   1.000
    H195    H    0.42808   0.79333   0.42486   1.000
    H196    H    0.92805   0.79332   0.42484   1.000
    H197    H    0.36486   0.72759   0.35954   1.000
    H198    H    0.86482   0.72759   0.35955   1.000
    H199    H    0.38728   0.72381   0.45323   1.000
    H200    H    0.88726   0.72381   0.45323   1.000
    C201    C    0.04898   0.51402   0.73084   1.000
    C202    C    0.54896   0.51398   0.73084   1.000
    C203    C    0.44743   0.55048   0.71048   1.000
    C204    C    0.94742   0.55048   0.71046   1.000
    C205    C    0.43102   0.57657   0.79548   1.000
    C206    C    0.93101   0.57658   0.79546   1.000
    C207    C    0.47542   0.56969   0.84992   1.000
    C208    C    0.95846   0.58923   0.93994   1.000
    C209    C    0.33934   0.46478   0.94900   1.000
    C210    C    0.83933   0.46480   0.94904   1.000
    C211    C    0.39805   0.45243   0.89267   1.000
    C212    C    0.89804   0.45245   0.89266   1.000
    C213    C    0.41661   0.35618   0.83778   1.000
    C214    C    0.91662   0.35620   0.83779   1.000
    C215    C    0.43801   0.31729   0.89301   1.000
    C216    C    0.93802   0.31734   0.89305   1.000
    C217    C    0.46456   0.34057   0.76710   1.000
    C218    C    0.96458   0.34060   0.76710   1.000
    C219    C    0.38233   0.21683   0.48592   1.000
    C220    C    0.88231   0.21687   0.48597   1.000
    C221    C    0.28082   0.16013   0.44950   1.000
    C222    C    0.78081   0.16015   0.44951   1.000
    C223    C    0.26445   0.21900   0.42334   1.000
    C224    C    0.76444   0.21904   0.42330   1.000
    C225    C    0.30886   0.28026   0.43010   1.000
    C226    C    0.80885   0.28031   0.43022   1.000
    C227    C    0.36931   0.27731   0.46084   1.000
    C228    C    0.86929   0.27736   0.46090   1.000
    C229    C    0.29195   0.35081   0.41068   1.000
    C230    C    0.79194   0.35086   0.41072   1.000
    C231    C    0.17267   0.48411   0.53513   1.000
    C232    C    0.67266   0.48416   0.53510   1.000
    C233    C    0.23143   0.44016   0.54750   1.000
    C234    C    0.73142   0.44020   0.54750   1.000
    C235    C    0.24993   0.48153   0.64375   1.000
    C236    C    0.74990   0.48155   0.64378   1.000
    C237    C    0.27123   0.57562   0.68248   1.000
    C238    C    0.77121   0.57564   0.68254   1.000
    C239    C    0.29794   0.42654   0.65942   1.000
    C240    C    0.79790   0.42655   0.65945   1.000
    C241    C    0.21575   0.26905   0.78305   1.000
    C242    C    0.71575   0.26904   0.78309   1.000
    C243    C    0.11425   0.28956   0.84002   1.000
    C244    C    0.61424   0.28958   0.84004   1.000
    C245    C    0.09782   0.20462   0.78116   1.000
    C246    C    0.59781   0.20463   0.78118   1.000
    C247    C    0.14218   0.15015   0.71976   1.000
    C248    C    0.64217   0.15015   0.71980   1.000
    C249    C    0.20266   0.18358   0.72250   1.000
    C250    C    0.70265   0.18357   0.72262   1.000
    C251    C    0.12521   0.06015   0.64930   1.000
    C252    C    0.62519   0.06015   0.64930   1.000
    C253    C    0.00597   0.05105   0.51581   1.000
    C254    C    0.50597   0.05107   0.51585   1.000
    C255    C    0.06464   0.10743   0.55980   1.000
    C256    C    0.56464   0.10744   0.55984   1.000
    C257    C    0.08314   0.16231   0.51840   1.000
    C258    C    0.58315   0.16230   0.51842   1.000
    C259    C    0.10459   0.10705   0.42434   1.000
    C260    C    0.60461   0.10702   0.42436   1.000
    C261    C    0.69757   0.44961   0.28955   1.000
    C262    C    0.18115   0.42343   0.20454   1.000
    C263    C    0.68116   0.42346   0.20456   1.000
    C264    C    0.22552   0.43024   0.15003   1.000
    C265    C    0.72554   0.43025   0.15005   1.000
    C266    C    0.28598   0.46089   0.18350   1.000
    C267    C    0.78600   0.46090   0.18353   1.000
    C268    C    0.20856   0.41071   0.06001   1.000
    C269    C    0.70858   0.41071   0.06002   1.000
    C270    C    0.08930   0.53517   0.05090   1.000
    C271    C    0.58929   0.53513   0.05094   1.000
    C272    C    0.14799   0.54750   0.10726   1.000
    C273    C    0.64799   0.54748   0.10729   1.000
    C274    C    0.16648   0.64374   0.16206   1.000
    C275    C    0.66647   0.64373   0.16207   1.000
    C276    C    0.18789   0.68249   0.10671   1.000
    C277    C    0.68786   0.68248   0.10672   1.000
    C278    C    0.21439   0.65936   0.23274   1.000
    C279    C    0.71440   0.65936   0.23274   1.000
    C280    C    0.13235   0.78309   0.51403   1.000
    C281    C    0.63232   0.78308   0.51405   1.000
    C282    C    0.03085   0.84006   0.55055   1.000
    C283    C    0.53082   0.84007   0.55058   1.000
    C284    C    0.01441   0.78114   0.57660   1.000
    C285    C    0.51438   0.78114   0.57662   1.000
    C286    C    0.05878   0.71972   0.56965   1.000
    C287    C    0.55874   0.71972   0.56966   1.000
    C288    C    0.11925   0.72255   0.53899   1.000
    C289    C    0.61921   0.72254   0.53899   1.000
    C290    C    0.04182   0.64920   0.58914   1.000
    C291    C    0.54177   0.64919   0.58914   1.000
    C292    C    0.42266   0.51588   0.46472   1.000
    C293    C    0.92265   0.51594   0.46476   1.000
    C294    C    0.48136   0.55985   0.45235   1.000
    C295    C    0.98136   0.55989   0.45236   1.000
    C296    C    0.49991   0.51856   0.35610   1.000
    C297    C    0.99990   0.51859   0.35611   1.000
    C298    C    0.02134   0.42449   0.31729   1.000
    C299    C    0.52135   0.42448   0.31728   1.000
    C300    C    0.04786   0.57362   0.34048   1.000
    C301    C    0.54783   0.57361   0.34047   1.000
    C302    C    0.46565   0.73080   0.21678   1.000
    C303    C    0.96562   0.73083   0.21678   1.000
    C304    C    0.36409   0.71060   0.16015   1.000
    C305    C    0.86407   0.71063   0.16013   1.000
    C306    C    0.34774   0.79562   0.21902   1.000
    C307    C    0.84771   0.79564   0.21902   1.000
    C308    C    0.39217   0.84997   0.28026   1.000
    C309    C    0.89214   0.84999   0.28026   1.000
    C310    C    0.45264   0.81634   0.27725   1.000
    C311    C    0.95260   0.81636   0.27727   1.000
    C312    C    0.37528   0.94002   0.35076   1.000
    C313    C    0.87523   0.94003   0.35070   1.000
    C314    C    0.25602   0.94907   0.48427   1.000
    C315    C    0.75601   0.94909   0.48432   1.000
    C316    C    0.31476   0.89269   0.44025   1.000
    C317    C    0.81473   0.89270   0.44028   1.000
    C318    C    0.33329   0.83777   0.48162   1.000
    C319    C    0.83328   0.83778   0.48164   1.000
    C320    C    0.35460   0.89300   0.57572   1.000
    C321    C    0.85461   0.89301   0.57573   1.000
    C322    C    0.38131   0.76713   0.42663   1.000
    C323    C    0.88128   0.76713   0.42664   1.000
    N324    N    0.00523   0.51843   0.67771   1.000
    N325    N    0.50521   0.51842   0.67772   1.000
    N326    N    0.45089   0.50917   0.94575   1.000
    N327    N    0.95088   0.50921   0.94574   1.000
    N328    N    0.33857   0.15934   0.48153   1.000
    N329    N    0.83856   0.15937   0.48155   1.000
    N330    N    0.28429   0.43656   0.49073   1.000
    N331    N    0.78428   0.43661   0.49077   1.000
    N332    N    0.17203   0.32221   0.84067   1.000
    N333    N    0.67202   0.32222   0.84069   1.000
    N334    N    0.11755   0.05435   0.56352   1.000
    N335    N    0.61754   0.05436   0.56356   1.000
    N336    N    0.25533   0.48158   0.32220   1.000
    N337    N    0.75533   0.48163   0.32224   1.000
    N338    N    0.20088   0.49072   0.05418   1.000
    N339    N    0.70089   0.49071   0.05419   1.000
    N340    N    0.08863   0.84075   0.51853   1.000
    N341    N    0.58861   0.84075   0.51856   1.000
    N342    N    0.03424   0.56346   0.50910   1.000
    N343    N    0.53421   0.56344   0.50910   1.000
    N344    N    0.42187   0.67775   0.15933   1.000
    N345    N    0.92184   0.67779   0.15932   1.000
    N346    N    0.36762   0.94575   0.43655   1.000
    N347    N    0.86759   0.94577   0.43656   1.000
    O348    O    0.34137   0.51889   0.03002   1.000
    O349    O    0.84136   0.51891   0.03000   1.000
    O350    O    0.29181   0.41937   0.90874   1.000
    O351    O    0.79180   0.41940   0.90871   1.000
    O352    O    0.17474   0.51117   0.48115   1.000
    O353    O    0.67472   0.51120   0.48117   1.000
    O354    O    0.12509   0.48896   0.58042   1.000
    O355    O    0.62508   0.48901   0.58045   1.000
    O356    O    0.00809   0.97012   0.48901   1.000
    O357    O    0.50809   0.97014   0.48904   1.000
    O358    O    0.45840   0.09140   0.51075   1.000
    O359    O    0.95838   0.09137   0.51069   1.000
    O360    O    0.09140   0.48110   0.96993   1.000
    O361    O    0.59139   0.48108   0.96990   1.000
    O362    O    0.04172   0.58058   0.09125   1.000
    O363    O    0.54171   0.58052   0.09130   1.000
    O364    O    0.42472   0.48898   0.51882   1.000
    O365    O    0.92471   0.48902   0.51883   1.000
    O366    O    0.37510   0.51090   0.41930   1.000
    O367    O    0.87509   0.51101   0.41941   1.000
    O368    O    0.25807   0.03002   0.51116   1.000
    O369    O    0.75806   0.03005   0.51120   1.000
    O370    O    0.20847   0.90873   0.48931   1.000
    O371    O    0.70846   0.90877   0.48940   1.000
loop_
    _geom_bond_atom_site_label_1
    _geom_bond_atom_site_label_2
    _geom_bond_distance
    _geom_bond_site_symmetry_2
    _ccdc_geom_bond_type
    H116   C268      1.09889      .   S
    H117   C269      1.09889      .   S
    O349   Zn0       2.24704      .   S
    O349   C210      1.27629  1_554   S
    O348   Zn32      2.24663      .   S
    O348   C209      1.27712  1_554   S
    H118   C268      1.09874      .   S
    H119   C269      1.09874      .   S
    C270   O362      1.26494      .   S
    C270   C272      1.54112      .   S
    C270   O360      1.27630  1_554   S
    C271   O363      1.26490      .   S
    C271   C273      1.54116      .   S
    C271   O361      1.27717  1_554   S
    N338   C268      1.49179      .   S
    N338   H106      1.03313      .   S
    N338   C272      1.48690      .   S
    N338   Zn5       2.11214  1_554   S
    N339   C269      1.49180      .   S
    N339   H107      1.03312      .   S
    N339   C273      1.48697      .   S
    N339   Zn6       2.11203  1_554   S
    H126   C276      1.09824      .   S
    H127   C277      1.09825      .   S
    C268   C264      1.50765      .   S
    C269   C265      1.50773      .   S
    H128   C276      1.09991      .   S
    H129   C277      1.09991      .   S
    Zn32   O363      2.17246      .   S
    Zn32   N344      2.08165      .   S
    Zn32   N326      2.11069  1_554   S
    Zn0    O362      2.17310  1_655   S
    Zn0    N345      2.08130      .   S
    Zn0    N327      2.11202  1_554   S
    C276   H124      1.09861      .   S
    C276   C274      1.53053      .   S
    C277   H125      1.09863      .   S
    C277   C275      1.53041      .   S
    C272   H120      1.10265      .   S
    C272   C274      1.54371      .   S
    C273   H121      1.10253      .   S
    C273   C275      1.54369      .   S
    H176   C305      1.08768      .   S
    H175   C304      1.08767      .   S
    H114   C266      1.09128      .   S
    H115   C267      1.09132      .   S
    C264   C266      1.39986      .   S
    C264   C262      1.39906      .   S
    C265   C267      1.39985      .   S
    C265   C263      1.39905      .   S
    N345   C305      1.34975      .   S
    N345   C303      1.35411      .   S
    N344   C304      1.34977      .   S
    N344   C302      1.35411      .   S
    C305   C307      1.39027      .   S
    C304   C306      1.39025      .   S
    C274   H122      1.09924      .   S
    C274   C278      1.53037      .   S
    C275   H123      1.09885      .   S
    C275   C279      1.53043      .   S
    H112   C262      1.09036      .   S
    H113   C263      1.09031      .   S
    C266   C134      1.38737      .   S
    C267   C135      1.38660      .   S
    C262   C136      1.39014      .   S
    C263   C261      1.39019      .   S
    H131   C279      1.10007      .   S
    H130   C278      1.10008      .   S
    H174   C302      1.08783      .   S
    H173   C303      1.08827  1_455   S
    C303   C311      1.38739      .   S
    C302   C310      1.38741      .   S
    H177   C306      1.09066      .   S
    H178   C307      1.09034      .   S
    C307   C309      1.39912      .   S
    C306   C308      1.39919      .   S
    C279   H138      1.09964      .   S
    C279   H140      1.09837      .   S
    C278   H137      1.09958      .   S
    C278   H139      1.09838      .   S
    H160   C299      1.09856      .   S
    H159   C298      1.09869      .   S
    C135   H109      1.08806      .   S
    C135   N337      1.35478      .   S
    C134   H108      1.08786      .   S
    C134   N336      1.35413      .   S
    H170   C301      1.09834      .   S
    H169   C300      1.09848      .   S
    C310   C308      1.39985      .   S
    C310   H179      1.09134      .   S
    C311   C309      1.39988      .   S
    C311   H180      1.09130      .   S
    C308   C312      1.50764      .   S
    C309   C313      1.50726      .   S
    C136   N336      1.34970      .   S
    C136   H110      1.08773      .   S
    C261   N337      1.34972      .   S
    C261   H111      1.08744      .   S
    C299   H161      1.09835      .   S
    C299   H164      1.09996      .   S
    C299   C296      1.53041      .   S
    C298   H162      1.09863  1_455   S
    C298   H163      1.09985      .   S
    C298   C297      1.53057  1_455   S
    N336   Zn1       2.08122      .   S
    N337   Zn2       2.08128      .   S
    H157   C296      1.09923      .   S
    H158   C297      1.09915      .   S
    H183   C312      1.09874      .   S
    H184   C313      1.09820      .   S
    C301   C296      1.53047      .   S
    C301   H168      1.09963      .   S
    C301   H166      1.10014      .   S
    C300   C297      1.53074  1_455   S
    C300   H167      1.09963      .   S
    C300   H165      1.10003      .   S
    C313   H182      1.09855      .   S
    C313   N347      1.49307      .   S
    C312   H181      1.09888      .   S
    C312   N346      1.49187      .   S
    C296   C294      1.54375      .   S
    C297   C295      1.54368      .   S
    H197   C322      1.09952      .   S
    H198   C323      1.09960      .   S
    H52    C229      1.09888      .   S
    H53    C230      1.09890      .   S
    H54    C229      1.09878      .   S
    H55    C230      1.09873      .   S
    H185   C316      1.10256      .   S
    H186   C317      1.10263      .   S
    H92    C259      1.09833      .   S
    H93    C260      1.09832      .   S
    H90    C259      1.09869      .   S
    H91    C260      1.09867      .   S
    H49    C224      1.08995      .   S
    H48    C223      1.09034      .   S
    C229   C225      1.50657      .   S
    C229   N330      1.49176      .   S
    C230   C226      1.50757      .   S
    C230   N331      1.49177      .   S
    H94    C259      1.09992      .   S
    H95    C260      1.09992      .   S
    O366   Zn1       2.17257      .   S
    O366   C292      1.26545      .   S
    O367   Zn2       2.17232      .   S
    O367   C293      1.26498      .   S
    C224   C226      1.39885      .   S
    C224   C222      1.39096      .   S
    C223   C225      1.39960      .   S
    C223   C221      1.39013      .   S
    C259   C257      1.53041      .   S
    C260   C258      1.53043      .   S
    H196   C323      1.10012      .   S
    H195   C322      1.10006      .   S
    C322   H199      1.09845      .   S
    C322   C318      1.53050      .   S
    C323   H200      1.09834      .   S
    C323   C319      1.53046      .   S
    C225   C227      1.40047      .   S
    C226   C228      1.39987      .   S
    N346   C316      1.48697      .   S
    N346   H171      1.03314      .   S
    N346   Zn9       2.11202  1_565   S
    N347   C317      1.48702      .   S
    N347   H172      1.03308      .   S
    N347   Zn10      2.11203  1_565   S
    C316   C318      1.54374      .   S
    C316   C314      1.54136      .   S
    C317   C319      1.54366      .   S
    C317   C315      1.54133      .   S
    H47    C222      1.08763      .   S
    H46    C221      1.08771      .   S
    C221   N328      1.34976      .   S
    C222   N329      1.34971      .   S
    C294   C292      1.54118      .   S
    C294   H155      1.10268      .   S
    C294   N343      1.48689      .   S
    C295   C293      1.54127      .   S
    C295   H156      1.10263      .   S
    C295   N342      1.48725  1_655   S
    Zn1    O352      2.24745      .   S
    Zn1    N330      2.11228      .   S
    Zn2    O353      2.24745      .   S
    Zn2    N331      2.11234      .   S
    C227   H50       1.09133      .   S
    C227   C219      1.38729      .   S
    C228   H51       1.09129      .   S
    C228   C220      1.38739      .   S
    C292   O364      1.27630      .   S
    C293   O365      1.27615      .   S
    Zn3    O356      2.24593      .   S
    Zn3    O370      2.17287      .   S
    Zn3    N340      2.08115      .   S
    Zn3    N334      2.11198  1_565   S
    Zn4    O357      2.24592      .   S
    Zn4    O371      2.17298      .   S
    Zn4    N341      2.08110      .   S
    Zn4    N335      2.11193  1_565   S
    H142   N343      1.03311      .   S
    H141   N342      1.03306      .   S
    O352   C231      1.27634      .   S
    O353   C232      1.27539      .   S
    N328   C219      1.35414      .   S
    N328   Zn9       2.08141      .   S
    N329   C220      1.35412      .   S
    N329   Zn10      2.08146      .   S
    C318   H187      1.09919      .   S
    C318   C320      1.53047      .   S
    C319   H188      1.09924      .   S
    C319   C321      1.53046      .   S
    C314   O370      1.26486      .   S
    C314   O368      1.27591  1_565   S
    C315   O371      1.26491      .   S
    C315   O369      1.27589  1_565   S
    C219   H44       1.08786      .   S
    C220   H45       1.08774      .   S
    O356   C253      1.27584  1_565   S
    O357   C254      1.27584  1_565   S
    H143   C280      1.08789      .   S
    H144   C281      1.08786      .   S
    N330   H42       1.03314      .   S
    N330   C233      1.48698      .   S
    N331   H43       1.03314      .   S
    N331   C234      1.48668      .   S
    N342   Zn7       2.11232      .   S
    N342   C290      1.49171      .   S
    N343   Zn8       2.11225      .   S
    N343   C291      1.49171      .   S
    O359   C253      1.26524  1_655   S
    O359   Zn10      2.17264      .   S
    O358   C254      1.26484      .   S
    O358   Zn9       2.17256      .   S
    O368   Zn9       2.24669      .   S
    O369   Zn10      2.24666      .   S
    C280   N340      1.35419      .   S
    C280   C288      1.38730      .   S
    C281   N341      1.35419      .   S
    C281   C289      1.38732      .   S
    C253   C255      1.54126      .   S
    C254   C256      1.54127      .   S
    H88    C257      1.09919      .   S
    H89    C258      1.09922      .   S
    C257   C255      1.54365      .   S
    C257   C132      1.53044      .   S
    C258   C256      1.54369      .   S
    C258   C133      1.53046      .   S
    N340   C282      1.34978      .   S
    N341   C283      1.34974      .   S
    O364   Zn8       2.24683      .   S
    O365   Zn7       2.24734  1_655   S
    H56    C233      1.10258      .   S
    H57    C234      1.10268      .   S
    H150   C289      1.09128      .   S
    H149   C288      1.09127      .   S
    C232   C234      1.54140      .   S
    C232   O355      1.26553      .   S
    C231   C233      1.54118      .   S
    C231   O354      1.26489      .   S
    C289   C287      1.39988      .   S
    C288   C286      1.39985      .   S
    H104   C132      1.10958      .   S
    H105   C133      1.09844      .   S
    Zn7    O354      2.17246      .   S
    Zn7    N324      2.08187      .   S
    Zn8    O355      2.17254      .   S
    Zn8    N325      2.08190      .   S
    C233   C235      1.54369      .   S
    C234   C236      1.54412      .   S
    H73    N335      1.03371      .   S
    H72    N334      1.03310      .   S
    C282   H145      1.08766  1_455   S
    C282   C284      1.39013      .   S
    C283   H146      1.08766      .   S
    C283   C285      1.39027      .   S
    C255   N334      1.48699      .   S
    C255   H86       1.10275      .   S
    C256   N335      1.48694      .   S
    C256   H87       1.10264      .   S
    N334   C251      1.49128      .   S
    N335   C252      1.49057      .   S
    C286   C284      1.39909      .   S
    C286   C290      1.50757      .   S
    C287   C285      1.39907      .   S
    C287   C291      1.50758      .   S
    C132   H96       1.10009      .   S
    C132   H98       1.09958      .   S
    C133   H97       1.10008      .   S
    C133   H99       1.09960      .   S
    C320   H193      1.09993      .   S
    C320   H189      1.09866      .   S
    C320   H191      1.09830      .   S
    C321   H194      1.09992      .   S
    C321   H190      1.09867      .   S
    C321   H192      1.09832      .   S
    C284   H148      1.09081  1_455   S
    C285   H147      1.09032      .   S
    C290   H153      1.09880  1_455   S
    C290   H151      1.09894      .   S
    C291   H154      1.09863      .   S
    C291   H152      1.09884      .   S
    H66    C239      1.10012      .   S
    H67    C240      1.10003      .   S
    H69    C240      1.09951      .   S
    H68    C239      1.09964      .   S
    H82    C251      1.09902      .   S
    H83    C252      1.09920      .   S
    C235   C239      1.53047      .   S
    C235   H58       1.09918      .   S
    C235   C237      1.53043      .   S
    C236   C240      1.53043      .   S
    C236   H59       1.09922      .   S
    C236   C238      1.53041      .   S
    C252   H85       1.09920      .   S
    C252   C248      1.50800      .   S
    C251   H84       1.09890      .   S
    C251   C247      1.50779      .   S
    H64    C237      1.09984      .   S
    H65    C238      1.09995      .   S
    C239   H70       1.09842      .   S
    C240   H71       1.09842      .   S
    H16    C204      1.08758      .   S
    H15    C203      1.08756      .   S
    H62    C237      1.09833      .   S
    H63    C238      1.09836      .   S
    N324   C204      1.35017  1_455   S
    N324   C201      1.35410      .   S
    N325   C203      1.34974      .   S
    N325   C202      1.35412      .   S
    H80    C249      1.09072      .   S
    H81    C250      1.09128      .   S
    C237   H60       1.09867      .   S
    C238   H61       1.09848      .   S
    H14    C202      1.08784      .   S
    H13    C201      1.08784      .   S
    C204   C206      1.39036      .   S
    C203   C205      1.39037      .   S
    C247   C249      1.40012      .   S
    C247   C245      1.39911      .   S
    C248   C250      1.39988      .   S
    C248   C246      1.39906      .   S
    C249   C241      1.38770      .   S
    C250   C242      1.38739      .   S
    H40    C217      1.09837      .   S
    H41    C218      1.09832      .   S
    H38    C217      1.09953      .   S
    H39    C218      1.09926      .   S
    C202   C102      1.38648      .   S
    C201   C101      1.38746      .   S
    C218   H37       0.89132  1_655   S
    C218   C214      1.53079      .   S
    C217   H36       1.10010      .   S
    C217   C213      1.53050      .   S
    C245   H78       1.09029      .   S
    C245   C243      1.39017      .   S
    C246   H79       1.09028      .   S
    C246   C244      1.39018      .   S
    C241   H74       1.08782      .   S
    C241   N332      1.35418      .   S
    C242   H75       1.08786      .   S
    C242   N333      1.35414      .   S
    C206   H18       1.09033      .   S
    C206   C100      1.39908      .   S
    C205   H17       1.09033      .   S
    C205   C207      1.39909      .   S
    H27    C213      1.09924      .   S
    H28    C214      1.09924      .   S
    C102   C207      1.40010      .   S
    C102   H20       1.09196      .   S
    C101   C100      1.40030  1_455   S
    C101   H19       1.09123      .   S
    C213   C211      1.54369      .   S
    C213   C215      1.53035      .   S
    C214   C212      1.54369      .   S
    C214   C216      1.53047      .   S
    C243   N332      1.34971      .   S
    C243   H76       1.08760      .   S
    C244   N333      1.34970      .   S
    C244   H77       1.08769      .   S
    N332   Zn5       2.08062      .   S
    N333   Zn6       2.08063      .   S
    H26    C212      1.10253      .   S
    H25    C211      1.10259      .   S
    C100   C208      1.50772      .   S
    C207   C103      1.50769      .   S
    H29    C215      1.09861      .   S
    H30    C216      1.09864      .   S
    C212   N327      1.48697      .   S
    C212   C210      1.54127      .   S
    C211   N326      1.48699      .   S
    C211   C209      1.54069      .   S
    C215   H34       1.09995      .   S
    C215   H31       1.09838      .   S
    C216   H35       1.09991      .   S
    C216   H33       1.09829      .   S
    O351   Zn6       2.17266      .   S
    O351   C210      1.26495      .   S
    O350   Zn5       2.17268      .   S
    O350   C209      1.26467      .   S
    Zn5    O360      2.24684      .   S
    Zn6    O361      2.24655      .   S
    H12    N327      1.03312      .   S
    H11    N326      1.03311      .   S
    C208   N327      1.49174      .   S
    C208   H24       1.09874      .   S
    C208   H22       1.09822      .   S
    C103   N326      1.49176      .   S
    C103   H23       1.09875      .   S
    C103   H21       1.09888      .   S
