# CIF file generated by openbabel 2.4.90, see http://openbabel.sf.net
data_I
_chemical_name_common ''
_cell_length_a 21.11
_cell_length_b 17.853
_cell_length_c 17.853
_cell_angle_alpha 119.977
_cell_angle_beta 89.995
_cell_angle_gamma 89.962
_space_group_name_H-M_alt 'P 1'
_space_group_name_Hall 'P 1'
loop_
    _symmetry_equiv_pos_as_xyz
    x,y,z
loop_
    _atom_site_label
    _atom_site_type_symbol
    _atom_site_fract_x
    _atom_site_fract_y
    _atom_site_fract_z
    _atom_site_occupancy
    Zr0     Zr   0.44178   0.54725   0.07780   1.000
    Zr1     Zr   0.94177   0.54730   0.07787   1.000
    Zr2     Zr   0.27516   0.53068   0.45270   1.000
    Zr3     Zr   0.77515   0.53074   0.45275   1.000
    Zr4     Zr   0.10850   0.92225   0.46953   1.000
    Zr5     Zr   0.60849   0.92226   0.46957   1.000
    Zr6     Zr   0.19183   0.45265   0.92205   1.000
    Zr7     Zr   0.69183   0.45266   0.92207   1.000
    Zr8     Zr   0.02515   0.46938   0.54718   1.000
    Zr9     Zr   0.52513   0.46937   0.54719   1.000
    Zr10    Zr   0.35847   0.07785   0.53059   1.000
    Zr11    Zr   0.85845   0.07787   0.53060   1.000
    N12     N    0.69760   0.53762   0.15719   1.000
    O13     O    0.73142   0.52191   0.27234   1.000
    O14     O    0.59467   0.55075   0.12087   1.000
    N15     N    0.86428   0.84276   0.38045   1.000
    O16     O    0.89805   0.72765   0.24952   1.000
    O17     O    0.76138   0.87914   0.42997   1.000
    N18     N    0.78095   0.38043   0.53763   1.000
    O19     O    0.81473   0.24952   0.52185   1.000
    O20     O    0.67803   0.42981   0.55073   1.000
    N21     N    0.44760   0.46229   0.84271   1.000
    O22     O    0.34471   0.44915   0.87905   1.000
    O23     O    0.48139   0.47810   0.72758   1.000
    N24     N    0.61426   0.15734   0.61963   1.000
    O25     O    0.64809   0.27239   0.75050   1.000
    O26     O    0.51135   0.12098   0.57015   1.000
    N27     N    0.28097   0.38039   0.53760   1.000
    O28     O    0.31475   0.24950   0.52183   1.000
    O29     O    0.17805   0.42978   0.55070   1.000
    N30     N    0.94722   0.46233   0.84271   1.000
    O31     O    0.84452   0.44918   0.87905   1.000
    O32     O    0.98121   0.47812   0.72758   1.000
    N33     N    0.11426   0.15735   0.61957   1.000
    O34     O    0.14810   0.27239   0.75047   1.000
    O35     O    0.01134   0.12098   0.57011   1.000
    N36     N    0.53092   0.61966   0.46227   1.000
    O37     O    0.56474   0.75058   0.47817   1.000
    O38     O    0.42803   0.57022   0.44914   1.000
    N39     N    0.19759   0.53762   0.15718   1.000
    O40     O    0.23142   0.52188   0.27231   1.000
    O41     O    0.09467   0.55078   0.12087   1.000
    N42     N    0.03094   0.61967   0.46227   1.000
    O43     O    0.06475   0.75059   0.47815   1.000
    O44     O    0.92803   0.57028   0.44918   1.000
    N45     N    0.36431   0.84274   0.38044   1.000
    O46     O    0.26140   0.87912   0.42993   1.000
    O47     O    0.39807   0.72762   0.24950   1.000
    O48     O    0.34998   0.93781   0.44133   1.000
    O49     O    0.09996   0.06229   0.55874   1.000
    O50     O    0.76664   0.44138   0.50350   1.000
    O51     O    0.01663   0.55874   0.49642   1.000
    O52     O    0.68329   0.50345   0.06212   1.000
    O53     O    0.43328   0.49647   0.93778   1.000
    O54     O    0.51661   0.55872   0.49642   1.000
    O55     O    0.84996   0.93782   0.44134   1.000
    O56     O    0.26665   0.44133   0.50346   1.000
    O57     O    0.93308   0.49650   0.93779   1.000
    O58     O    0.59996   0.06230   0.55878   1.000
    O59     O    0.18329   0.50345   0.06212   1.000
loop_
    _geom_bond_atom_site_label_1
    _geom_bond_atom_site_label_2
    _geom_bond_distance
    _geom_bond_site_symmetry_2
    _ccdc_geom_bond_type
    N12    O13       2.32193      .   S
    Zr3    O13       3.27772      .   S
    N12    O14       2.31252      .   S
    Zr0    O14       3.31130      .   S
    N15    O16       2.32213      .   S
    Zr1    O16       3.27805      .   S
    N15    O17       2.31223      .   S
    Zr5    O17       3.31089      .   S
    N18    O19       2.32152      .   S
    Zr11   O19       3.27751      .   S
    N18    O20       2.31173      .   S
    Zr9    O20       3.31088      .   S
    N21    O22       2.31218      .   S
    Zr6    O22       3.31052      .   S
    N21    O23       2.32210      .   S
    Zr9    O23       3.27825      .   S
    N24    O25       2.32262      .   S
    Zr7    O25       3.27800      .   S
    N24    O26       2.31318      .   S
    Zr10   O26       3.31169      .   S
    N27    O28       2.32145      .   S
    Zr10   O28       3.27740      .   S
    N27    O29       2.31179      .   S
    Zr8    O29       3.31104      .   S
    N30    O31       2.30855      .   S
    Zr7    O31       3.30689      .   S
    N30    O32       2.32336      .   S
    Zr8    O32       3.27939  1_455   S
    N33    O34       2.32279      .   S
    Zr6    O34       3.27812      .   S
    N33    O35       2.31328      .   S
    Zr11   O35       3.31171  1_655   S
    N36    O37       2.32224      .   S
    Zr5    O37       3.27787      .   S
    N36    O38       2.31253      .   S
    Zr2    O38       3.31122      .   S
    N39    O40       2.32194      .   S
    Zr2    O40       3.27770      .   S
    N39    O41       2.31254      .   S
    Zr1    O41       3.31126  1_655   S
    N42    O43       2.32217      .   S
    Zr4    O43       3.27784      .   S
    N42    O44       2.31268  1_455   S
    Zr3    O44       3.31149      .   S
    N45    O46       2.31222      .   S
    Zr4    O46       3.31102      .   S
    N45    O47       2.32227      .   S
    Zr0    O47       3.27855      .   S
    Zr10   O48       2.20047  1_545   S
    N45    O48       1.51963      .   S
    Zr4    O49       2.20005  1_565   S
    N33    O49       1.51966      .   S
    Zr3    O50       2.20078      .   S
    N18    O50       1.51953      .   S
    Zr8    O51       2.20070      .   S
    N42    O51       1.51971      .   S
    Zr7    O52       2.20014  1_556   S
    N12    O52       1.51974      .   S
    Zr0    O53       2.19974  1_554   S
    N21    O53       1.51958      .   S
    Zr9    O54       2.20067      .   S
    N36    O54       1.51974      .   S
    Zr11   O55       2.20044  1_545   S
    N15    O55       1.51962      .   S
    Zr2    O56       2.20067      .   S
    N27    O56       1.51945      .   S
    Zr1    O57       2.20095  1_554   S
    N30    O57       1.51903      .   S
    Zr5    O58       2.19997  1_565   S
    N24    O58       1.51961      .   S
    Zr6    O59       2.20033  1_556   S
    N39    O59       1.51966      .   S
