# CIF file generated by openbabel 2.4.90, see http://openbabel.sf.net
data_I
_chemical_name_common ''
_cell_length_a 21.11
_cell_length_b 17.853
_cell_length_c 17.853
_cell_angle_alpha 119.977
_cell_angle_beta 89.995
_cell_angle_gamma 89.962
_space_group_name_H-M_alt 'P 1'
_space_group_name_Hall 'P 1'
loop_
    _symmetry_equiv_pos_as_xyz
    x,y,z
loop_
    _atom_site_label
    _atom_site_type_symbol
    _atom_site_fract_x
    _atom_site_fract_y
    _atom_site_fract_z
    _atom_site_occupancy
    Zr0     Zr   0.44178   0.54725   0.07780   1.000
    Zr1     Zr   0.94177   0.54730   0.07787   1.000
    Zr2     Zr   0.27516   0.53068   0.45270   1.000
    Zr3     Zr   0.77515   0.53074   0.45275   1.000
    Zr4     Zr   0.10850   0.92225   0.46953   1.000
    Zr5     Zr   0.60849   0.92226   0.46957   1.000
    Zr6     Zr   0.19183   0.45265   0.92205   1.000
    Zr7     Zr   0.69183   0.45266   0.92207   1.000
    Zr8     Zr   0.02515   0.46938   0.54718   1.000
    Zr9     Zr   0.52513   0.46937   0.54719   1.000
    Zr10    Zr   0.35847   0.07785   0.53059   1.000
    Zr11    Zr   0.85845   0.07787   0.53060   1.000
    N12     N    0.69760   0.53762   0.15719   1.000
    O13     O    0.73142   0.52191   0.27234   1.000
    O14     O    0.59467   0.55075   0.12087   1.000
    O15     O    0.66960   0.50225   0.05159   1.000
    O16     O    0.69698   0.50466   0.07266   1.000
    N17     N    0.86428   0.84276   0.38045   1.000
    O18     O    0.86365   0.92729   0.43201   1.000
    O19     O    0.89805   0.72765   0.24952   1.000
    O20     O    0.76138   0.87914   0.42997   1.000
    O21     O    0.83627   0.94836   0.45067   1.000
    N22     N    0.78095   0.38043   0.53763   1.000
    O23     O    0.78033   0.43205   0.50470   1.000
    O24     O    0.81473   0.24952   0.52185   1.000
    O25     O    0.75294   0.45070   0.50230   1.000
    O26     O    0.67803   0.42981   0.55073   1.000
    N27     N    0.44760   0.46229   0.84271   1.000
    O28     O    0.44697   0.49525   0.92724   1.000
    O29     O    0.34471   0.44915   0.87905   1.000
    O30     O    0.48139   0.47810   0.72758   1.000
    O31     O    0.41959   0.49768   0.94831   1.000
    N32     N    0.61426   0.15734   0.61963   1.000
    O33     O    0.64809   0.27239   0.75050   1.000
    O34     O    0.61364   0.07282   0.56810   1.000
    O35     O    0.58627   0.05177   0.54947   1.000
    O36     O    0.51135   0.12098   0.57015   1.000
    N37     N    0.28097   0.38039   0.53760   1.000
    O38     O    0.28035   0.43201   0.50466   1.000
    O39     O    0.25296   0.45066   0.50226   1.000
    O40     O    0.31475   0.24950   0.52183   1.000
    O41     O    0.17805   0.42978   0.55070   1.000
    N42     N    0.94722   0.46233   0.84271   1.000
    O43     O    0.91939   0.49772   0.94832   1.000
    O44     O    0.94677   0.49529   0.92726   1.000
    O45     O    0.84452   0.44918   0.87905   1.000
    O46     O    0.98121   0.47812   0.72758   1.000
    N47     N    0.11426   0.15735   0.61957   1.000
    O48     O    0.14810   0.27239   0.75047   1.000
    O49     O    0.11364   0.07282   0.56805   1.000
    O50     O    0.08628   0.05177   0.54942   1.000
    O51     O    0.01134   0.12098   0.57011   1.000
    N52     N    0.53092   0.61966   0.46227   1.000
    O53     O    0.53030   0.56803   0.49521   1.000
    O54     O    0.56474   0.75058   0.47817   1.000
    O55     O    0.50293   0.54941   0.49764   1.000
    O56     O    0.42803   0.57022   0.44914   1.000
    N57     N    0.19759   0.53762   0.15718   1.000
    O58     O    0.23142   0.52188   0.27231   1.000
    O59     O    0.09467   0.55078   0.12087   1.000
    O60     O    0.16960   0.50225   0.05158   1.000
    O61     O    0.19698   0.50465   0.07265   1.000
    N62     N    0.03094   0.61967   0.46227   1.000
    O63     O    0.06475   0.75059   0.47815   1.000
    O64     O    0.92803   0.57028   0.44918   1.000
    O65     O    0.03032   0.56805   0.49521   1.000
    O66     O    0.00294   0.54943   0.49764   1.000
    N67     N    0.36431   0.84274   0.38044   1.000
    O68     O    0.36367   0.92727   0.43200   1.000
    O69     O    0.26140   0.87912   0.42993   1.000
    O70     O    0.39807   0.72762   0.24950   1.000
    O71     O    0.33629   0.94834   0.45066   1.000
    N72     N    0.69866   0.53817   0.86462   1.000
    O73     O    0.69695   0.51679   0.87898   1.000
    N74     N    0.94875   0.46169   0.13520   1.000
    O75     O    0.94701   0.48309   0.12087   1.000
    N76     N    0.78193   0.67364   0.53827   1.000
    O77     O    0.78023   0.63792   0.51689   1.000
    N78     N    0.44873   0.46162   0.13519   1.000
    O79     O    0.44699   0.48303   0.12084   1.000
    N80     N    0.61542   0.86492   0.32665   1.000
    O81     O    0.61368   0.87925   0.36238   1.000
    N82     N    0.28197   0.67358   0.53820   1.000
    O83     O    0.28026   0.63786   0.51682   1.000
    N84     N    0.86543   0.13515   0.67350   1.000
    O85     O    0.86368   0.12083   0.63777   1.000
    N86     N    0.19870   0.53815   0.86459   1.000
    O87     O    0.19698   0.51677   0.87895   1.000
    N88     N    0.11541   0.86493   0.32660   1.000
    O89     O    0.11368   0.87926   0.36233   1.000
    N90     N    0.03200   0.32647   0.46150   1.000
    O91     O    0.03028   0.36220   0.48292   1.000
    N92     N    0.36541   0.13512   0.67300   1.000
    O93     O    0.36368   0.12080   0.63740   1.000
    N94     N    0.53201   0.32647   0.46159   1.000
    O95     O    0.53029   0.36219   0.48299   1.000
loop_
    _geom_bond_atom_site_label_1
    _geom_bond_atom_site_label_2
    _geom_bond_distance
    _geom_bond_site_symmetry_2
    _ccdc_geom_bond_type
    N12    O13       2.32193      .   S
    Zr3    O13       3.27772      .   S
    N12    O14       2.31252      .   S
    Zr0    O14       3.31130      .   S
    N12    O15       1.76448      .   S
    Zr7    O15       2.07463  1_556   S
    N12    O16       1.31774      .   S
    Zr7    O16       2.36807  1_556   S
    N17    O18       1.31787      .   S
    Zr11   O18       2.36818  1_545   S
    N17    O19       2.32213      .   S
    Zr1    O19       3.27805      .   S
    N17    O20       2.31223      .   S
    Zr5    O20       3.31089      .   S
    N17    O21       1.76416      .   S
    Zr11   O21       2.07512  1_545   S
    N22    O23       1.31791      .   S
    Zr3    O23       2.36837      .   S
    N22    O24       2.32152      .   S
    Zr11   O24       3.27751      .   S
    N22    O25       1.76395      .   S
    Zr3    O25       2.07562      .   S
    N22    O26       2.31173      .   S
    Zr9    O26       3.31088      .   S
    N27    O28       1.31779      .   S
    Zr0    O28       2.36747  1_554   S
    N27    O29       2.31218      .   S
    Zr6    O29       3.31052      .   S
    N27    O30       2.32210      .   S
    Zr9    O30       3.27825      .   S
    N27    O31       1.76414      .   S
    Zr0    O31       2.07445  1_554   S
    N32    O33       2.32262      .   S
    Zr7    O33       3.27800      .   S
    N32    O34       1.31761      .   S
    Zr5    O34       2.36791  1_565   S
    N32    O35       1.76433      .   S
    Zr5    O35       2.07443  1_565   S
    N32    O36       2.31318      .   S
    Zr10   O36       3.31169      .   S
    N37    O38       1.31783      .   S
    Zr2    O38       2.36826      .   S
    N37    O39       1.76388      .   S
    Zr2    O39       2.07551      .   S
    N37    O40       2.32145      .   S
    Zr10   O40       3.27740      .   S
    N37    O41       2.31179      .   S
    Zr8    O41       3.31104      .   S
    N42    O43       1.76304      .   S
    Zr1    O43       2.07620  1_554   S
    N42    O44       1.31799      .   S
    Zr1    O44       2.36818  1_554   S
    N42    O45       2.30855      .   S
    Zr7    O45       3.30689      .   S
    N42    O46       2.32336      .   S
    Zr8    O46       3.27939  1_455   S
    N47    O48       2.32279      .   S
    Zr6    O48       3.27812      .   S
    N47    O49       1.31767      .   S
    Zr4    O49       2.36798  1_565   S
    N47    O50       1.76436      .   S
    Zr4    O50       2.07451  1_565   S
    N47    O51       2.31328      .   S
    Zr11   O51       3.31171  1_655   S
    N52    O53       1.31793      .   S
    Zr9    O53       2.36841      .   S
    N52    O54       2.32224      .   S
    Zr5    O54       3.27787      .   S
    N52    O55       1.76429      .   S
    Zr9    O55       2.07532      .   S
    N52    O56       2.31253      .   S
    Zr2    O56       3.31122      .   S
    N57    O58       2.32194      .   S
    Zr2    O58       3.27770      .   S
    N57    O59       2.31254      .   S
    Zr1    O59       3.31126  1_655   S
    N57    O60       1.76430      .   S
    Zr6    O60       2.07491  1_556   S
    N57    O61       1.31776      .   S
    Zr6    O61       2.36815  1_556   S
    N62    O63       2.32217      .   S
    Zr4    O63       3.27784      .   S
    N62    O64       2.31268  1_455   S
    Zr3    O64       3.31149      .   S
    N62    O65       1.31792      .   S
    Zr8    O65       2.36842      .   S
    N62    O66       1.76427      .   S
    Zr8    O66       2.07540      .   S
    N67    O68       1.31790      .   S
    Zr10   O68       2.36820  1_545   S
    N67    O69       2.31222      .   S
    Zr4    O69       3.31102      .   S
    N67    O70       2.32227      .   S
    Zr0    O70       3.27855      .   S
    N67    O71       1.76416      .   S
    Zr10   O71       2.07517  1_545   S
    N72    O73       0.55724      .   S
    Zr7    O73       1.67171      .   S
    N74    O75       0.55725      .   S
    Zr1    O75       1.67175      .   S
    N76    O77       0.55723      .   S
    Zr3    O77       1.67170      .   S
    N78    O79       0.55754      .   S
    Zr0    O79       1.67263      .   S
    N80    O81       0.55730      .   S
    Zr5    O81       1.67190      .   S
    N82    O83       0.55724      .   S
    Zr2    O83       1.67173      .   S
    N84    O85       0.55729      .   S
    Zr11   O85       1.67188      .   S
    N86    O87       0.55723      .   S
    Zr6    O87       1.67169      .   S
    N88    O89       0.55734      .   S
    Zr4    O89       1.67202      .   S
    N90    O91       0.55730      .   S
    Zr8    O91       1.67190      .   S
    N92    O93       0.55529      .   S
    Zr10   O93       1.66587      .   S
    N94    O95       0.55726      .   S
    Zr9    O95       1.67179      .   S
