# CIF file generated by openbabel 2.4.90, see http://openbabel.sf.net
data_I
_chemical_name_common ''
_cell_length_a 20.297
_cell_length_b 22.807
_cell_length_c 18.089
_cell_angle_alpha 99.858
_cell_angle_beta 89.934
_cell_angle_gamma 116.458
_space_group_name_H-M_alt 'P 1'
_space_group_name_Hall 'P 1'
loop_
    _symmetry_equiv_pos_as_xyz
    x,y,z
loop_
    _atom_site_label
    _atom_site_type_symbol
    _atom_site_fract_x
    _atom_site_fract_y
    _atom_site_fract_z
    _atom_site_occupancy
    H0      H    0.41490   0.06435   0.64632   1.000
    H1      H    0.41491   0.56435   0.64632   1.000
    H2      H    0.91489   0.06435   0.64632   1.000
    H3      H    0.91490   0.56435   0.64632   1.000
    H4      H    0.09706   0.01460   0.62733   1.000
    H5      H    0.09707   0.51461   0.62733   1.000
    H6      H    0.59706   0.01460   0.62733   1.000
    H7      H    0.59706   0.51461   0.62733   1.000
    H8      H    0.38324   0.37641   0.51630   1.000
    H9      H    0.38325   0.87641   0.51630   1.000
    H10     H    0.88324   0.37641   0.51630   1.000
    H11     H    0.88324   0.87641   0.51630   1.000
    H12     H    0.35064   0.43565   0.85357   1.000
    H13     H    0.35065   0.93566   0.85357   1.000
    H14     H    0.85064   0.43565   0.85357   1.000
    H15     H    0.85064   0.93565   0.85357   1.000
    H16     H    0.08256   0.48533   0.87272   1.000
    H17     H    0.08256   0.98534   0.87272   1.000
    H18     H    0.58256   0.48533   0.87272   1.000
    H19     H    0.58256   0.98534   0.87272   1.000
    H20     H    0.00687   0.12355   0.98366   1.000
    H21     H    0.00687   0.62356   0.98366   1.000
    H22     H    0.50687   0.12355   0.98367   1.000
    H23     H    0.50687   0.62356   0.98366   1.000
    H24     H    0.08512   0.43567   0.35367   1.000
    H25     H    0.08513   0.93568   0.35366   1.000
    H26     H    0.58512   0.43567   0.35366   1.000
    H27     H    0.58512   0.93568   0.35366   1.000
    H28     H    0.40295   0.48542   0.37265   1.000
    H29     H    0.40296   0.98542   0.37265   1.000
    H30     H    0.90295   0.48541   0.37265   1.000
    H31     H    0.90295   0.98542   0.37265   1.000
    H32     H    0.11677   0.12362   0.48368   1.000
    H33     H    0.11678   0.62362   0.48368   1.000
    H34     H    0.61677   0.12362   0.48368   1.000
    H35     H    0.61677   0.62362   0.48368   1.000
    H36     H    0.14937   0.06437   0.14642   1.000
    H37     H    0.14938   0.56438   0.14641   1.000
    H38     H    0.64937   0.06437   0.14642   1.000
    H39     H    0.64937   0.56438   0.14641   1.000
    H40     H    0.41745   0.01468   0.12726   1.000
    H41     H    0.41746   0.51468   0.12725   1.000
    H42     H    0.91745   0.01468   0.12726   1.000
    H43     H    0.91745   0.51468   0.12725   1.000
    H44     H    0.49316   0.37647   0.01630   1.000
    H45     H    0.49316   0.87647   0.01631   1.000
    H46     H    0.99315   0.37647   0.01632   1.000
    H47     H    0.99316   0.87647   0.01631   1.000
    C48     C    0.43818   0.03094   0.62355   1.000
    C49     C    0.43818   0.53095   0.62355   1.000
    C50     C    0.93817   0.03094   0.62350   1.000
    C51     C    0.93818   0.53095   0.62355   1.000
    C52     C    0.39212   0.47003   0.57690   1.000
    C53     C    0.39213   0.97003   0.57697   1.000
    C54     C    0.89212   0.47003   0.57698   1.000
    C55     C    0.89212   0.97003   0.57698   1.000
    C56     C    0.03947   0.00265   0.61493   1.000
    C57     C    0.03947   0.50266   0.61493   1.000
    C58     C    0.53946   0.00265   0.61493   1.000
    C59     C    0.53947   0.50266   0.61493   1.000
    C60     C    0.49314   0.44084   0.56993   1.000
    C61     C    0.49315   0.94084   0.56990   1.000
    C62     C    0.99314   0.44084   0.56993   1.000
    C63     C    0.99314   0.94084   0.56993   1.000
    C64     C    0.01236   0.04823   0.64351   1.000
    C65     C    0.01236   0.54823   0.64350   1.000
    C66     C    0.51236   0.04823   0.64350   1.000
    C67     C    0.51236   0.54823   0.64350   1.000
    C68     C    0.41937   0.42440   0.55108   1.000
    C69     C    0.41938   0.92441   0.55108   1.000
    C70     C    0.91937   0.42440   0.55108   1.000
    C71     C    0.91937   0.92441   0.55108   1.000
    C72     C    0.40731   0.46904   0.87639   1.000
    C73     C    0.40731   0.96905   0.87639   1.000
    C74     C    0.90731   0.46904   0.87639   1.000
    C75     C    0.90731   0.96905   0.87630   1.000
    C76     C    0.42214   0.02995   0.92296   1.000
    C77     C    0.42214   0.52995   0.92296   1.000
    C78     C    0.92214   0.02995   0.92296   1.000
    C79     C    0.92214   0.52995   0.92296   1.000
    C80     C    0.03691   0.49730   0.88509   1.000
    C81     C    0.03691   0.99730   0.88509   1.000
    C82     C    0.53690   0.49730   0.88509   1.000
    C83     C    0.53690   0.99730   0.88509   1.000
    C84     C    0.05237   0.05912   0.93009   1.000
    C85     C    0.05238   0.55912   0.93009   1.000
    C86     C    0.55237   0.05912   0.93009   1.000
    C87     C    0.55237   0.55912   0.93009   1.000
    C88     C    0.46422   0.45174   0.85649   1.000
    C89     C    0.46423   0.95174   0.85649   1.000
    C90     C    0.96422   0.45174   0.85649   1.000
    C91     C    0.96422   0.95174   0.85649   1.000
    C92     C    0.49501   0.07556   0.94890   1.000
    C93     C    0.49502   0.57556   0.94889   1.000
    C94     C    0.99501   0.07556   0.94889   1.000
    C95     C    0.99501   0.57556   0.94889   1.000
    C96     C    0.06184   0.46908   0.37643   1.000
    C97     C    0.06185   0.96908   0.37643   1.000
    C98     C    0.56184   0.46908   0.37643   1.000
    C99     C    0.56184   0.96908   0.37643   1.000
    C100    C    0.10790   0.02999   0.42300   1.000
    C101    C    0.10790   0.52999   0.42300   1.000
    C102    C    0.60789   0.02999   0.42301   1.000
    C103    C    0.60790   0.53000   0.42300   1.000
    C104    C    0.46055   0.49737   0.38505   1.000
    C105    C    0.46056   0.99737   0.38500   1.000
    C106    C    0.96055   0.49736   0.38505   1.000
    C107    C    0.96055   0.99737   0.38505   1.000
    C108    C    0.00687   0.05918   0.43005   1.000
    C109    C    0.00688   0.55919   0.43005   1.000
    C110    C    0.50687   0.05918   0.43005   1.000
    C111    C    0.50687   0.55919   0.43005   1.000
    C112    C    0.48766   0.45179   0.35648   1.000
    C113    C    0.48766   0.95180   0.35647   1.000
    C114    C    0.98765   0.45179   0.35648   1.000
    C115    C    0.98766   0.95180   0.35647   1.000
    C116    C    0.08064   0.07562   0.44890   1.000
    C117    C    0.08065   0.57562   0.44890   1.000
    C118    C    0.58064   0.07562   0.44890   1.000
    C119    C    0.58064   0.57562   0.44890   1.000
    C120    C    0.09270   0.03098   0.12360   1.000
    C121    C    0.09271   0.53098   0.12300   1.000
    C122    C    0.59270   0.03098   0.12360   1.000
    C123    C    0.59270   0.53098   0.12359   1.000
    C124    C    0.07788   0.47007   0.07702   1.000
    C125    C    0.07788   0.97008   0.07702   1.000
    C126    C    0.57788   0.47007   0.07702   1.000
    C127    C    0.57788   0.97007   0.07702   1.000
    C128    C    0.46311   0.00272   0.11489   1.000
    C129    C    0.46311   0.50272   0.11488   1.000
    C130    C    0.96310   0.00272   0.11480   1.000
    C131    C    0.96311   0.50272   0.11488   1.000
    C132    C    0.44765   0.44090   0.06989   1.000
    C133    C    0.44765   0.94091   0.06980   1.000
    C134    C    0.94764   0.44090   0.06989   1.000
    C135    C    0.94765   0.94091   0.06989   1.000
    C136    C    0.03579   0.04828   0.14349   1.000
    C137    C    0.03579   0.54828   0.14349   1.000
    C138    C    0.53579   0.04828   0.14349   1.000
    C139    C    0.53579   0.54829   0.14349   1.000
    C140    C    0.00501   0.42446   0.05109   1.000
    C141    C    0.00501   0.92447   0.05109   1.000
    C142    C    0.50501   0.42447   0.05100   1.000
    C143    C    0.50501   0.92446   0.05109   1.000
loop_
    _geom_bond_atom_site_label_1
    _geom_bond_atom_site_label_2
    _geom_bond_distance
    _geom_bond_site_symmetry_2
    _ccdc_geom_bond_type
    H44    C142      1.08657      .   S
    H45    C143      1.08709      .   S
    H47    C141      1.08709  1_655   S
    H46    C140      1.08701  1_655   S
    C142   C132      1.39884      .   S
    C142   C126      1.39794      .   S
    C143   C133      1.39823      .   S
    C143   C127      1.39763      .   S
    C141   C135      1.39871  1_455   S
    C141   C125      1.39761      .   S
    C140   C134      1.39870  1_455   S
    C140   C124      1.39761      .   S
    C133   C128      1.40136  1_565   S
    C132   C129      1.40073      .   S
    C134   C131      1.40074      .   S
    C135   C130      1.40003  1_565   S
    C127   C122      1.39906  1_565   S
    C126   C123      1.39910      .   S
    C125   C120      1.39907  1_565   S
    C124   C121      1.39452      .   S
    C130   H42       1.08981      .   S
    C130   C136      1.40594  1_655   S
    C131   H43       1.08953      .   S
    C131   C137      1.40559  1_655   S
    C129   H41       1.08953      .   S
    C129   C139      1.40546      .   S
    C128   H40       1.08952      .   S
    C128   C138      1.40542      .   S
    C121   C137      1.40808      .   S
    C121   H37       1.09197      .   S
    C123   C139      1.40582      .   S
    C123   H39       1.08914      .   S
    C120   C136      1.40577      .   S
    C120   H36       1.08914      .   S
    C122   C138      1.40577      .   S
    C122   H38       1.08914      .   S
    H26    C98       1.08914      .   S
    H25    C97       1.08913      .   S
    H27    C99       1.08915      .   S
    H24    C96       1.08911      .   S
    C113   C99       1.40579      .   S
    C113   C105      1.40523      .   S
    C115   C97       1.40597  1_655   S
    C115   C107      1.40543      .   S
    C112   C98       1.40577      .   S
    C112   C104      1.40539      .   S
    C114   C96       1.40592  1_655   S
    C114   C106      1.40539      .   S
    H28    C104      1.08953      .   S
    H29    C105      1.08936      .   S
    H30    C106      1.08954      .   S
    H31    C107      1.08953      .   S
    C98    C103      1.39912      .   S
    C99    C102      1.39905  1_565   S
    C97    C100      1.39899  1_565   S
    C96    C101      1.39914      .   S
    C105   C110      1.40095  1_565   S
    C107   C108      1.40063  1_665   S
    C104   C111      1.40073      .   S
    C106   C109      1.40079  1_655   S
    C101   C117      1.39776      .   S
    C100   C116      1.39777      .   S
    C103   C119      1.39778      .   S
    C102   C118      1.39775      .   S
    C108   C116      1.39854      .   S
    C109   C117      1.39852      .   S
    C110   C118      1.39857      .   S
    C111   C119      1.39855      .   S
    C119   H35       1.08710      .   S
    C118   H34       1.08710      .   S
    C117   H33       1.08714      .   S
    C116   H32       1.08712      .   S
    H8     C68       1.08712      .   S
    H9     C69       1.08709      .   S
    H10    C70       1.08711      .   S
    H11    C71       1.08711      .   S
    C68    C60       1.39855      .   S
    C68    C52       1.39745      .   S
    C71    C63       1.39855      .   S
    C71    C55       1.39776      .   S
    C70    C62       1.39854      .   S
    C70    C54       1.39777      .   S
    C69    C61       1.39846      .   S
    C69    C53       1.39773      .   S
    C61    C58       1.40081  1_565   S
    C60    C59       1.40073      .   S
    C62    C57       1.40076  1_655   S
    C63    C56       1.40064  1_665   S
    C52    C49       1.39974      .   S
    C53    C48       1.39906  1_565   S
    C54    C51       1.39909      .   S
    C55    C50       1.39859  1_565   S
    C59    H7        1.08952      .   S
    C59    C67       1.40540      .   S
    C58    H6        1.08952      .   S
    C58    C66       1.40540      .   S
    C57    H5        1.08952      .   S
    C57    C65       1.40538      .   S
    C56    H4        1.08954      .   S
    C56    C64       1.40542      .   S
    C50    C64       1.40616  1_655   S
    C50    H2        1.08937      .   S
    C51    C65       1.40595  1_655   S
    C51    H3        1.08914      .   S
    C48    C66       1.40577      .   S
    C48    H0        1.08912      .   S
    C49    C67       1.40577      .   S
    C49    H1        1.08912      .   S
    H12    C72       1.08916      .   S
    H13    C73       1.08915      .   S
    H14    C74       1.08915      .   S
    H15    C75       1.08871      .   S
    C91    C75       1.40548      .   S
    C91    C81       1.40556  1_655   S
    C90    C74       1.40581      .   S
    C90    C80       1.40555  1_655   S
    C89    C73       1.40581      .   S
    C89    C83       1.40543      .   S
    C88    C72       1.40579      .   S
    C88    C82       1.40543      .   S
    H16    C80       1.08954      .   S
    H17    C81       1.08952      .   S
    H18    C82       1.08954      .   S
    H19    C83       1.08952      .   S
    C75    C78       1.39970  1_565   S
    C72    C77       1.39911      .   S
    C74    C79       1.39909      .   S
    C73    C76       1.39902  1_565   S
    C83    C86       1.40071  1_565   S
    C82    C87       1.40080      .   S
    C81    C84       1.40069  1_565   S
    C80    C85       1.40078      .   S
    C79    C95       1.39763      .   S
    C78    C94       1.39763      .   S
    C77    C93       1.39762      .   S
    C76    C92       1.39765      .   S
    C84    C94       1.39870  1_455   S
    C87    C93       1.39851      .   S
    C86    C92       1.39855      .   S
    C85    C95       1.39871  1_455   S
    C95    H21       1.08701  1_655   S
    C94    H20       1.08701  1_655   S
    C93    H23       1.08709      .   S
    C92    H22       1.08708      .   S
