# CIF file generated by openbabel 2.4.90, see http://openbabel.sf.net
data_I
_chemical_name_common ''
_cell_length_a 20.297
_cell_length_b 22.807
_cell_length_c 18.089
_cell_angle_alpha 99.858
_cell_angle_beta 89.934
_cell_angle_gamma 116.458
_space_group_name_H-M_alt 'P 1'
_space_group_name_Hall 'P 1'
loop_
    _symmetry_equiv_pos_as_xyz
    x,y,z
loop_
    _atom_site_label
    _atom_site_type_symbol
    _atom_site_fract_x
    _atom_site_fract_y
    _atom_site_fract_z
    _atom_site_occupancy
    H0      H    0.19802   0.18021   0.83599   1.000
    H1      H    0.19802   0.68022   0.83599   1.000
    H2      H    0.69801   0.18021   0.83599   1.000
    H3      H    0.69802   0.68022   0.83599   1.000
    H4      H    0.12712   0.07619   0.74556   1.000
    H5      H    0.12712   0.57620   0.74556   1.000
    H6      H    0.62712   0.07619   0.74556   1.000
    H7      H    0.62712   0.57620   0.74556   1.000
    H8      H    0.00421   0.16564   0.65630   1.000
    H9      H    0.00422   0.66565   0.65636   1.000
    H10     H    0.50421   0.16564   0.65636   1.000
    H11     H    0.50421   0.66565   0.65636   1.000
    H12     H    0.07310   0.26878   0.75113   1.000
    H13     H    0.07310   0.76879   0.75112   1.000
    H14     H    0.57309   0.26879   0.75113   1.000
    H15     H    0.57310   0.76879   0.75112   1.000
    H16     H    0.51790   0.31955   0.66402   1.000
    H17     H    0.51790   0.81956   0.66402   1.000
    H18     H    0.00000   0.31955   0.66402   1.000
    H19     H    0.00000   0.81955   0.66401   1.000
    H20     H    0.05115   0.42360   0.75445   1.000
    H21     H    0.05116   0.92361   0.75444   1.000
    H22     H    0.55115   0.42360   0.75445   1.000
    H23     H    0.55115   0.92361   0.75445   1.000
    H24     H    0.33849   0.33442   0.84370   1.000
    H25     H    0.33849   0.83443   0.84370   1.000
    H26     H    0.83849   0.33442   0.84371   1.000
    H27     H    0.83849   0.83443   0.84370   1.000
    H28     H    0.30410   0.23126   0.74892   1.000
    H29     H    0.30410   0.73127   0.74891   1.000
    H30     H    0.80410   0.23126   0.74892   1.000
    H31     H    0.80410   0.73127   0.74891   1.000
    H32     H    0.30200   0.31981   0.16399   1.000
    H33     H    0.30201   0.81982   0.16399   1.000
    H34     H    0.80200   0.31981   0.16399   1.000
    H35     H    0.80200   0.81982   0.16399   1.000
    H36     H    0.37290   0.42383   0.25442   1.000
    H37     H    0.37291   0.92383   0.25442   1.000
    H38     H    0.87290   0.42383   0.25442   1.000
    H39     H    0.87290   0.92383   0.25442   1.000
    H40     H    0.49581   0.33438   0.34362   1.000
    H41     H    0.49581   0.83438   0.34362   1.000
    H42     H    0.99580   0.33438   0.34362   1.000
    H43     H    0.99581   0.83438   0.34360   1.000
    C44     C    0.97803   0.82271   0.70276   1.000
    H45     H    0.42692   0.23123   0.24885   1.000
    H46     H    0.42693   0.73124   0.24885   1.000
    H47     H    0.92692   0.23123   0.24880   1.000
    H48     H    0.92692   0.73124   0.24885   1.000
    H49     H    0.98211   0.18047   0.33590   1.000
    H50     H    0.98212   0.68048   0.33596   1.000
    H51     H    0.48211   0.18047   0.33596   1.000
    H52     H    0.48212   0.68048   0.33596   1.000
    H53     H    0.44886   0.07642   0.24553   1.000
    H54     H    0.44886   0.57642   0.24553   1.000
    H55     H    0.94885   0.07641   0.24553   1.000
    H56     H    0.94886   0.57642   0.24553   1.000
    H57     H    0.16152   0.16559   0.15628   1.000
    H58     H    0.16152   0.66560   0.15627   1.000
    H59     H    0.66152   0.16559   0.15628   1.000
    H60     H    0.66152   0.66560   0.15627   1.000
    C61     C    0.34490   0.32288   0.20274   1.000
    C62     C    0.34491   0.82289   0.20274   1.000
    C63     C    0.84489   0.32288   0.20274   1.000
    C64     C    0.84490   0.82289   0.20274   1.000
    H65     H    0.19591   0.26876   0.25106   1.000
    H66     H    0.19592   0.76876   0.25100   1.000
    H67     H    0.69591   0.26875   0.25106   1.000
    H68     H    0.69591   0.76876   0.25106   1.000
    C69     C    0.15512   0.17714   0.79724   1.000
    C70     C    0.15512   0.67715   0.79724   1.000
    C71     C    0.65511   0.17714   0.79724   1.000
    C72     C    0.65512   0.67715   0.79724   1.000
    C73     C    0.11536   0.11835   0.74536   1.000
    C74     C    0.11536   0.61836   0.74536   1.000
    C75     C    0.61536   0.11835   0.74536   1.000
    C76     C    0.61536   0.61836   0.74536   1.000
    C77     C    0.04549   0.16786   0.69665   1.000
    C78     C    0.04549   0.66787   0.69664   1.000
    C79     C    0.54548   0.16786   0.69664   1.000
    C80     C    0.54549   0.66787   0.69664   1.000
    C81     C    0.05885   0.11213   0.69496   1.000
    C82     C    0.05886   0.61214   0.69495   1.000
    C83     C    0.55885   0.11213   0.69490   1.000
    C84     C    0.55885   0.61214   0.69495   1.000
    C85     C    0.08469   0.22631   0.74882   1.000
    C86     C    0.08469   0.72631   0.74881   1.000
    C87     C    0.58469   0.22631   0.74881   1.000
    C88     C    0.58469   0.72631   0.74881   1.000
    C89     C    0.13941   0.23149   0.80062   1.000
    C90     C    0.13941   0.73149   0.80061   1.000
    C91     C    0.63940   0.23149   0.80062   1.000
    C92     C    0.63941   0.73149   0.80061   1.000
    C93     C    0.47802   0.32270   0.70277   1.000
    C94     C    0.47803   0.82271   0.70277   1.000
    C95     C    0.97802   0.32270   0.70277   1.000
    C96     C    0.49713   0.38151   0.75465   1.000
    C97     C    0.49713   0.88151   0.75465   1.000
    C98     C    0.99713   0.38151   0.75465   1.000
    C99     C    0.99713   0.88152   0.75465   1.000
    C100    C    0.37758   0.33214   0.80340   1.000
    C101    C    0.37758   0.83215   0.80339   1.000
    C102    C    0.87758   0.33214   0.80340   1.000
    C103    C    0.87758   0.83215   0.80339   1.000
    C104    C    0.44679   0.38781   0.80507   1.000
    C105    C    0.44679   0.88782   0.80507   1.000
    C106    C    0.94679   0.38781   0.80507   1.000
    C107    C    0.94679   0.88782   0.80507   1.000
    C108    C    0.35826   0.27369   0.75121   1.000
    C109    C    0.35826   0.77370   0.75121   1.000
    C110    C    0.85825   0.27369   0.75121   1.000
    C111    C    0.85826   0.77370   0.75121   1.000
    C112    C    0.40785   0.26843   0.69940   1.000
    C113    C    0.40785   0.76844   0.69940   1.000
    C114    C    0.90785   0.26843   0.69940   1.000
    C115    C    0.90785   0.76844   0.69940   1.000
    C116    C    0.38466   0.38167   0.25462   1.000
    C117    C    0.38467   0.88167   0.25462   1.000
    C118    C    0.88465   0.38167   0.25462   1.000
    C119    C    0.88466   0.88167   0.25462   1.000
    C120    C    0.45453   0.33216   0.30334   1.000
    C121    C    0.45454   0.83216   0.30333   1.000
    C122    C    0.95452   0.33215   0.30334   1.000
    C123    C    0.95453   0.83216   0.30333   1.000
    C124    C    0.44117   0.38789   0.30503   1.000
    C125    C    0.44117   0.88789   0.30502   1.000
    C126    C    0.94116   0.38789   0.30503   1.000
    C127    C    0.94117   0.88789   0.30502   1.000
    C128    C    0.41533   0.27371   0.25117   1.000
    C129    C    0.41533   0.77372   0.25116   1.000
    C130    C    0.91532   0.27371   0.25117   1.000
    C131    C    0.91533   0.77372   0.25116   1.000
    C132    C    0.36061   0.26853   0.19937   1.000
    C133    C    0.36062   0.76854   0.19936   1.000
    C134    C    0.86061   0.26853   0.19936   1.000
    C135    C    0.86061   0.76854   0.19936   1.000
    C136    C    0.02199   0.17732   0.29720   1.000
    C137    C    0.02199   0.67732   0.29721   1.000
    C138    C    0.52199   0.17732   0.29720   1.000
    C139    C    0.52199   0.67732   0.29721   1.000
    C140    C    0.00288   0.11851   0.24533   1.000
    C141    C    0.00289   0.61852   0.24532   1.000
    C142    C    0.50288   0.11851   0.24533   1.000
    C143    C    0.50288   0.61852   0.24532   1.000
    C144    C    0.12243   0.16788   0.19658   1.000
    C145    C    0.12243   0.66788   0.19658   1.000
    C146    C    0.62243   0.16787   0.19659   1.000
    C147    C    0.62243   0.66788   0.19658   1.000
    C148    C    0.05322   0.11221   0.19491   1.000
    C149    C    0.05322   0.61221   0.19491   1.000
    C150    C    0.55322   0.11221   0.19491   1.000
    C151    C    0.55322   0.61221   0.19491   1.000
    C152    C    0.14175   0.22633   0.24877   1.000
    C153    C    0.14176   0.72633   0.24876   1.000
    C154    C    0.64175   0.22632   0.24877   1.000
    C155    C    0.64176   0.72633   0.24876   1.000
    C156    C    0.09216   0.23159   0.30058   1.000
    C157    C    0.09217   0.73159   0.30057   1.000
    C158    C    0.59216   0.23159   0.30058   1.000
    C159    C    0.59217   0.73159   0.30058   1.000
loop_
    _geom_bond_atom_site_label_1
    _geom_bond_atom_site_label_2
    _geom_bond_distance
    _geom_bond_site_symmetry_2
    _ccdc_geom_bond_type
    H60    C147      1.08917      .   S
    H58    C145      1.08916      .   S
    H57    C144      1.08905      .   S
    H59    C146      1.08916      .   S
    H32    C61       1.08841      .   S
    H33    C62       1.08841      .   S
    H34    C63       1.08837      .   S
    H35    C64       1.08840      .   S
    C148   C144      1.40856      .   S
    C148   C140      1.40721      .   S
    C149   C145      1.40856      .   S
    C149   C141      1.40708      .   S
    C150   C146      1.40853      .   S
    C150   C142      1.40720      .   S
    C151   C147      1.40856      .   S
    C151   C143      1.40711      .   S
    C144   C152      1.38785      .   S
    C145   C153      1.38777      .   S
    C147   C155      1.38777      .   S
    C146   C154      1.38777      .   S
    C134   C63       1.40287      .   S
    C134   C130      1.40470      .   S
    C135   C64       1.40286      .   S
    C135   C131      1.40461      .   S
    C133   C62       1.40286      .   S
    C133   C129      1.40464      .   S
    C132   C61       1.40287      .   S
    C132   C128      1.40461      .   S
    C64    C119      1.39153      .   S
    C63    C118      1.39154      .   S
    C62    C117      1.39153      .   S
    C61    C116      1.39155      .   S
    C141   H56       1.08968  1_455   S
    C141   C137      1.39158      .   S
    C143   H54       1.08956      .   S
    C143   C139      1.39157      .   S
    C140   H55       1.08964  1_455   S
    C140   C136      1.39139      .   S
    C142   H53       1.08953      .   S
    C142   C138      1.39139      .   S
    C155   H68       1.08854      .   S
    C155   C159      1.40467      .   S
    C153   H66       1.08863      .   S
    C153   C157      1.40458      .   S
    C152   H65       1.08855      .   S
    C152   C156      1.40457      .   S
    C154   H67       1.08854      .   S
    C154   C158      1.40464      .   S
    H47    C130      1.08842      .   S
    H45    C128      1.08852      .   S
    H46    C129      1.08855      .   S
    H48    C131      1.08854      .   S
    C131   C123      1.38792      .   S
    C129   C121      1.38791      .   S
    C130   C122      1.38792      .   S
    C128   C120      1.38792      .   S
    H37    C117      1.08954      .   S
    H36    C116      1.08955      .   S
    H39    C119      1.08956      .   S
    H38    C118      1.08955      .   S
    C116   C124      1.40722      .   S
    C117   C125      1.40709      .   S
    C118   C126      1.40721      .   S
    C119   C127      1.40711      .   S
    C138   C158      1.40284      .   S
    C138   H51       1.08861      .   S
    C136   C156      1.40285      .   S
    C136   H49       1.08789  1_455   S
    C137   C157      1.40288      .   S
    C137   H50       1.08845  1_455   S
    C139   C159      1.40286      .   S
    C139   H52       1.08846      .   S
    C121   C125      1.40859      .   S
    C121   H41       1.08927      .   S
    C123   C127      1.40857      .   S
    C123   H43       1.08905      .   S
    C122   C126      1.40858      .   S
    C122   H42       1.08915      .   S
    C120   C124      1.40857      .   S
    C120   H40       1.08915      .   S
    H8     C77       1.09000      .   S
    H10    C79       1.08915      .   S
    H9     C78       1.08915      .   S
    H11    C80       1.08916      .   S
    H19    C44       0.84025  1_455   S
    H17    C94       1.08847      .   S
    H16    C93       1.08847      .   S
    H18    C95       0.84034  1_455   S
    C83    C79       1.40845      .   S
    C83    C75       1.40779      .   S
    C84    C80       1.40857      .   S
    C84    C76       1.40722      .   S
    C82    C78       1.40857      .   S
    C82    C74       1.40721      .   S
    C81    C77       1.40858      .   S
    C81    C73       1.40711      .   S
    C78    C86       1.38792      .   S
    C79    C87       1.38792      .   S
    C80    C88       1.38792      .   S
    C77    C85       1.38792      .   S
    C112   C93       1.40285      .   S
    C112   C108      1.40457      .   S
    C113   C94       1.40286      .   S
    C113   C109      1.40457      .   S
    C114   C95       1.40285      .   S
    C114   C110      1.40460      .   S
    C115   C44       1.40288      .   S
    C115   C111      1.40461      .   S
    C44    C99       1.39157      .   S
    C94    C97       1.39147      .   S
    C93    C96       1.39147      .   S
    C95    C98       1.39149      .   S
    C74    H5        1.08955      .   S
    C74    C70       1.39153      .   S
    C73    H4        1.08955      .   S
    C73    C69       1.39153      .   S
    C75    H6        1.08954      .   S
    C75    C71       1.39153      .   S
    C76    H7        1.08954      .   S
    C76    C72       1.39153      .   S
    C88    H15       1.08854      .   S
    C88    C92       1.40461      .   S
    C87    H14       1.08853      .   S
    C87    C91       1.40472      .   S
    C86    H13       1.08857      .   S
    C86    C90       1.40462      .   S
    C85    H12       1.08854      .   S
    C85    C89       1.40462      .   S
    H29    C109      1.08853      .   S
    H31    C111      1.08852      .   S
    H30    C110      1.08855      .   S
    H28    C108      1.08854      .   S
    C108   C100      1.38786      .   S
    C111   C103      1.38776      .   S
    C110   C102      1.38786      .   S
    C109   C101      1.38778      .   S
    H21    C99       1.08966  1_455   S
    H23    C97       1.08954      .   S
    H20    C98       1.08963  1_455   S
    H22    C96       1.08953      .   S
    C97    C105      1.40721      .   S
    C96    C104      1.40720      .   S
    C98    C106      1.40720      .   S
    C99    C107      1.40720      .   S
    C72    C92       1.40287      .   S
    C72    H3        1.08839      .   S
    C71    C91       1.40288      .   S
    C71    H2        1.08839      .   S
    C70    C90       1.40287      .   S
    C70    H1        1.08840      .   S
    C69    C89       1.40287      .   S
    C69    H0        1.08840      .   S
    C101   C105      1.40854      .   S
    C101   H25       1.08918      .   S
    C103   C107      1.40854      .   S
    C103   H27       1.08917      .   S
    C100   C104      1.40856      .   S
    C100   H24       1.08905      .   S
    C102   C106      1.40856      .   S
    C102   H26       1.08916      .   S
