# CIF file generated by openbabel 2.4.90, see http://openbabel.sf.net
data_I
_chemical_name_common ''
_cell_length_a 20.297
_cell_length_b 22.807
_cell_length_c 18.089
_cell_angle_alpha 99.858
_cell_angle_beta 89.934
_cell_angle_gamma 116.458
_space_group_name_H-M_alt 'P 1'
_space_group_name_Hall 'P 1'
loop_
    _symmetry_equiv_pos_as_xyz
    x,y,z
loop_
    _atom_site_label
    _atom_site_type_symbol
    _atom_site_fract_x
    _atom_site_fract_y
    _atom_site_fract_z
    _atom_site_occupancy
    H0      H    0.19802   0.18021   0.83599   1.000
    H1      H    0.19802   0.68022   0.83599   1.000
    H2      H    0.69801   0.18021   0.83599   1.000
    H3      H    0.69802   0.68022   0.83599   1.000
    H4      H    0.12712   0.07619   0.74556   1.000
    H5      H    0.12712   0.57620   0.74556   1.000
    H6      H    0.62712   0.07619   0.74556   1.000
    H7      H    0.62712   0.57620   0.74556   1.000
    H8      H    0.41490   0.06435   0.64632   1.000
    H9      H    0.41491   0.56435   0.64632   1.000
    H10     H    0.91489   0.06435   0.64632   1.000
    H11     H    0.91490   0.56435   0.64632   1.000
    H12     H    0.00421   0.16564   0.65630   1.000
    H13     H    0.00422   0.66565   0.65636   1.000
    H14     H    0.50421   0.16564   0.65636   1.000
    H15     H    0.50421   0.66565   0.65636   1.000
    H16     H    0.09706   0.01460   0.62733   1.000
    H17     H    0.09707   0.51461   0.62733   1.000
    H18     H    0.59706   0.01460   0.62733   1.000
    H19     H    0.59706   0.51461   0.62733   1.000
    H20     H    0.07310   0.26878   0.75113   1.000
    H21     H    0.07310   0.76879   0.75112   1.000
    H22     H    0.57309   0.26879   0.75113   1.000
    H23     H    0.57310   0.76879   0.75112   1.000
    H24     H    0.38324   0.37641   0.51630   1.000
    H25     H    0.38325   0.87641   0.51630   1.000
    H26     H    0.88324   0.37641   0.51630   1.000
    H27     H    0.88324   0.87641   0.51630   1.000
    H28     H    0.51790   0.31955   0.66402   1.000
    H29     H    0.51790   0.81956   0.66402   1.000
    H30     H    0.00000   0.31955   0.66402   1.000
    H31     H    0.00000   0.81955   0.66401   1.000
    H32     H    0.05115   0.42360   0.75445   1.000
    H33     H    0.05116   0.92361   0.75444   1.000
    H34     H    0.55115   0.42360   0.75445   1.000
    H35     H    0.55115   0.92361   0.75445   1.000
    H36     H    0.35064   0.43565   0.85357   1.000
    H37     H    0.35065   0.93566   0.85357   1.000
    H38     H    0.85064   0.43565   0.85357   1.000
    H39     H    0.85064   0.93565   0.85357   1.000
    H40     H    0.33849   0.33442   0.84370   1.000
    H41     H    0.33849   0.83443   0.84370   1.000
    H42     H    0.83849   0.33442   0.84371   1.000
    H43     H    0.83849   0.83443   0.84370   1.000
    H44     H    0.08256   0.48533   0.87272   1.000
    H45     H    0.08256   0.98534   0.87272   1.000
    H46     H    0.58256   0.48533   0.87272   1.000
    H47     H    0.58256   0.98534   0.87272   1.000
    H48     H    0.30410   0.23126   0.74892   1.000
    H49     H    0.30410   0.73127   0.74891   1.000
    H50     H    0.80410   0.23126   0.74892   1.000
    H51     H    0.80410   0.73127   0.74891   1.000
    H52     H    0.00687   0.12355   0.98366   1.000
    H53     H    0.00687   0.62356   0.98366   1.000
    H54     H    0.50687   0.12355   0.98367   1.000
    H55     H    0.50687   0.62356   0.98366   1.000
    H56     H    0.30200   0.31981   0.16399   1.000
    H57     H    0.30201   0.81982   0.16399   1.000
    H58     H    0.80200   0.31981   0.16399   1.000
    H59     H    0.80200   0.81982   0.16399   1.000
    H60     H    0.37290   0.42383   0.25442   1.000
    H61     H    0.37291   0.92383   0.25442   1.000
    H62     H    0.87290   0.42383   0.25442   1.000
    H63     H    0.87290   0.92383   0.25442   1.000
    H64     H    0.08512   0.43567   0.35367   1.000
    H65     H    0.08513   0.93568   0.35366   1.000
    H66     H    0.58512   0.43567   0.35366   1.000
    H67     H    0.58512   0.93568   0.35366   1.000
    H68     H    0.49581   0.33438   0.34362   1.000
    H69     H    0.49581   0.83438   0.34362   1.000
    H70     H    0.99580   0.33438   0.34362   1.000
    H71     H    0.99581   0.83438   0.34360   1.000
    H72     H    0.40295   0.48542   0.37265   1.000
    H73     H    0.40296   0.98542   0.37265   1.000
    H74     H    0.90295   0.48541   0.37265   1.000
    H75     H    0.90295   0.98542   0.37265   1.000
    C76     C    0.97803   0.82271   0.70276   1.000
    H77     H    0.42692   0.23123   0.24885   1.000
    H78     H    0.42693   0.73124   0.24885   1.000
    H79     H    0.92692   0.23123   0.24880   1.000
    H80     H    0.92692   0.73124   0.24885   1.000
    H81     H    0.11677   0.12362   0.48368   1.000
    H82     H    0.11678   0.62362   0.48368   1.000
    H83     H    0.61677   0.12362   0.48368   1.000
    H84     H    0.61677   0.62362   0.48368   1.000
    H85     H    0.98211   0.18047   0.33590   1.000
    H86     H    0.98212   0.68048   0.33596   1.000
    H87     H    0.48211   0.18047   0.33596   1.000
    H88     H    0.48212   0.68048   0.33596   1.000
    H89     H    0.44886   0.07642   0.24553   1.000
    H90     H    0.44886   0.57642   0.24553   1.000
    H91     H    0.94885   0.07641   0.24553   1.000
    H92     H    0.94886   0.57642   0.24553   1.000
    H93     H    0.14937   0.06437   0.14642   1.000
    H94     H    0.14938   0.56438   0.14641   1.000
    H95     H    0.64937   0.06437   0.14642   1.000
    H96     H    0.64937   0.56438   0.14641   1.000
    H97     H    0.16152   0.16559   0.15628   1.000
    H98     H    0.16152   0.66560   0.15627   1.000
    H99     H    0.66152   0.16559   0.15628   1.000
    H100    H    0.66152   0.66560   0.15627   1.000
    H101    H    0.41745   0.01468   0.12726   1.000
    H102    H    0.41746   0.51468   0.12725   1.000
    H103    H    0.91745   0.01468   0.12726   1.000
    H104    H    0.91745   0.51468   0.12725   1.000
    C105    C    0.34490   0.32288   0.20274   1.000
    C106    C    0.34491   0.82289   0.20274   1.000
    C107    C    0.84489   0.32288   0.20274   1.000
    C108    C    0.84490   0.82289   0.20274   1.000
    H109    H    0.19591   0.26876   0.25106   1.000
    H110    H    0.19592   0.76876   0.25100   1.000
    H111    H    0.69591   0.26875   0.25106   1.000
    H112    H    0.69591   0.76876   0.25106   1.000
    H113    H    0.49316   0.37647   0.01630   1.000
    H114    H    0.49316   0.87647   0.01631   1.000
    H115    H    0.99315   0.37647   0.01632   1.000
    H116    H    0.99316   0.87647   0.01631   1.000
    C117    C    0.15512   0.17714   0.79724   1.000
    C118    C    0.15512   0.67715   0.79724   1.000
    C119    C    0.65511   0.17714   0.79724   1.000
    C120    C    0.65512   0.67715   0.79724   1.000
    C121    C    0.11536   0.11835   0.74536   1.000
    C122    C    0.11536   0.61836   0.74536   1.000
    C123    C    0.61536   0.11835   0.74536   1.000
    C124    C    0.61536   0.61836   0.74536   1.000
    C125    C    0.43818   0.03094   0.62355   1.000
    C126    C    0.43818   0.53095   0.62355   1.000
    C127    C    0.93817   0.03094   0.62350   1.000
    C128    C    0.93818   0.53095   0.62355   1.000
    C129    C    0.39212   0.47003   0.57690   1.000
    C130    C    0.39213   0.97003   0.57697   1.000
    C131    C    0.89212   0.47003   0.57698   1.000
    C132    C    0.89212   0.97003   0.57698   1.000
    C133    C    0.04549   0.16786   0.69665   1.000
    C134    C    0.04549   0.66787   0.69664   1.000
    C135    C    0.54548   0.16786   0.69664   1.000
    C136    C    0.54549   0.66787   0.69664   1.000
    C137    C    0.05885   0.11213   0.69496   1.000
    C138    C    0.05886   0.61214   0.69495   1.000
    C139    C    0.55885   0.11213   0.69490   1.000
    C140    C    0.55885   0.61214   0.69495   1.000
    C141    C    0.03947   0.00265   0.61493   1.000
    C142    C    0.03947   0.50266   0.61493   1.000
    C143    C    0.53946   0.00265   0.61493   1.000
    C144    C    0.53947   0.50266   0.61493   1.000
    C145    C    0.49314   0.44084   0.56993   1.000
    C146    C    0.49315   0.94084   0.56990   1.000
    C147    C    0.99314   0.44084   0.56993   1.000
    C148    C    0.99314   0.94084   0.56993   1.000
    C149    C    0.01236   0.04823   0.64351   1.000
    C150    C    0.01236   0.54823   0.64350   1.000
    C151    C    0.51236   0.04823   0.64350   1.000
    C152    C    0.51236   0.54823   0.64350   1.000
    C153    C    0.08469   0.22631   0.74882   1.000
    C154    C    0.08469   0.72631   0.74881   1.000
    C155    C    0.58469   0.22631   0.74881   1.000
    C156    C    0.58469   0.72631   0.74881   1.000
    C157    C    0.13941   0.23149   0.80062   1.000
    C158    C    0.13941   0.73149   0.80061   1.000
    C159    C    0.63940   0.23149   0.80062   1.000
    C160    C    0.63941   0.73149   0.80061   1.000
    C161    C    0.41937   0.42440   0.55108   1.000
    C162    C    0.41938   0.92441   0.55108   1.000
    C163    C    0.91937   0.42440   0.55108   1.000
    C164    C    0.91937   0.92441   0.55108   1.000
    C165    C    0.47802   0.32270   0.70277   1.000
    C166    C    0.47803   0.82271   0.70277   1.000
    C167    C    0.97802   0.32270   0.70277   1.000
    C168    C    0.49713   0.38151   0.75465   1.000
    C169    C    0.49713   0.88151   0.75465   1.000
    C170    C    0.99713   0.38151   0.75465   1.000
    C171    C    0.99713   0.88152   0.75465   1.000
    C172    C    0.40731   0.46904   0.87639   1.000
    C173    C    0.40731   0.96905   0.87639   1.000
    C174    C    0.90731   0.46904   0.87639   1.000
    C175    C    0.90731   0.96905   0.87630   1.000
    C176    C    0.42214   0.02995   0.92296   1.000
    C177    C    0.42214   0.52995   0.92296   1.000
    C178    C    0.92214   0.02995   0.92296   1.000
    C179    C    0.92214   0.52995   0.92296   1.000
    C180    C    0.37758   0.33214   0.80340   1.000
    C181    C    0.37758   0.83215   0.80339   1.000
    C182    C    0.87758   0.33214   0.80340   1.000
    C183    C    0.87758   0.83215   0.80339   1.000
    C184    C    0.44679   0.38781   0.80507   1.000
    C185    C    0.44679   0.88782   0.80507   1.000
    C186    C    0.94679   0.38781   0.80507   1.000
    C187    C    0.94679   0.88782   0.80507   1.000
    C188    C    0.03691   0.49730   0.88509   1.000
    C189    C    0.03691   0.99730   0.88509   1.000
    C190    C    0.53690   0.49730   0.88509   1.000
    C191    C    0.53690   0.99730   0.88509   1.000
    C192    C    0.05237   0.05912   0.93009   1.000
    C193    C    0.05238   0.55912   0.93009   1.000
    C194    C    0.55237   0.05912   0.93009   1.000
    C195    C    0.55237   0.55912   0.93009   1.000
    C196    C    0.46422   0.45174   0.85649   1.000
    C197    C    0.46423   0.95174   0.85649   1.000
    C198    C    0.96422   0.45174   0.85649   1.000
    C199    C    0.96422   0.95174   0.85649   1.000
    C200    C    0.35826   0.27369   0.75121   1.000
    C201    C    0.35826   0.77370   0.75121   1.000
    C202    C    0.85825   0.27369   0.75121   1.000
    C203    C    0.85826   0.77370   0.75121   1.000
    C204    C    0.40785   0.26843   0.69940   1.000
    C205    C    0.40785   0.76844   0.69940   1.000
    C206    C    0.90785   0.26843   0.69940   1.000
    C207    C    0.90785   0.76844   0.69940   1.000
    C208    C    0.49501   0.07556   0.94890   1.000
    C209    C    0.49502   0.57556   0.94889   1.000
    C210    C    0.99501   0.07556   0.94889   1.000
    C211    C    0.99501   0.57556   0.94889   1.000
    C212    C    0.38466   0.38167   0.25462   1.000
    C213    C    0.38467   0.88167   0.25462   1.000
    C214    C    0.88465   0.38167   0.25462   1.000
    C215    C    0.88466   0.88167   0.25462   1.000
    C216    C    0.06184   0.46908   0.37643   1.000
    C217    C    0.06185   0.96908   0.37643   1.000
    C218    C    0.56184   0.46908   0.37643   1.000
    C219    C    0.56184   0.96908   0.37643   1.000
    C220    C    0.10790   0.02999   0.42300   1.000
    C221    C    0.10790   0.52999   0.42300   1.000
    C222    C    0.60789   0.02999   0.42301   1.000
    C223    C    0.60790   0.53000   0.42300   1.000
    C224    C    0.45453   0.33216   0.30334   1.000
    C225    C    0.45454   0.83216   0.30333   1.000
    C226    C    0.95452   0.33215   0.30334   1.000
    C227    C    0.95453   0.83216   0.30333   1.000
    C228    C    0.44117   0.38789   0.30503   1.000
    C229    C    0.44117   0.88789   0.30502   1.000
    C230    C    0.94116   0.38789   0.30503   1.000
    C231    C    0.94117   0.88789   0.30502   1.000
    C232    C    0.46055   0.49737   0.38505   1.000
    C233    C    0.46056   0.99737   0.38500   1.000
    C234    C    0.96055   0.49736   0.38505   1.000
    C235    C    0.96055   0.99737   0.38505   1.000
    C236    C    0.00687   0.05918   0.43005   1.000
    C237    C    0.00688   0.55919   0.43005   1.000
    C238    C    0.50687   0.05918   0.43005   1.000
    C239    C    0.50687   0.55919   0.43005   1.000
    C240    C    0.48766   0.45179   0.35648   1.000
    C241    C    0.48766   0.95180   0.35647   1.000
    C242    C    0.98765   0.45179   0.35648   1.000
    C243    C    0.98766   0.95180   0.35647   1.000
    C244    C    0.41533   0.27371   0.25117   1.000
    C245    C    0.41533   0.77372   0.25116   1.000
    C246    C    0.91532   0.27371   0.25117   1.000
    C247    C    0.91533   0.77372   0.25116   1.000
    C248    C    0.36061   0.26853   0.19937   1.000
    C249    C    0.36062   0.76854   0.19936   1.000
    C250    C    0.86061   0.26853   0.19936   1.000
    C251    C    0.86061   0.76854   0.19936   1.000
    C252    C    0.08064   0.07562   0.44890   1.000
    C253    C    0.08065   0.57562   0.44890   1.000
    C254    C    0.58064   0.07562   0.44890   1.000
    C255    C    0.58064   0.57562   0.44890   1.000
    C256    C    0.02199   0.17732   0.29720   1.000
    C257    C    0.02199   0.67732   0.29721   1.000
    C258    C    0.52199   0.17732   0.29720   1.000
    C259    C    0.52199   0.67732   0.29721   1.000
    C260    C    0.00288   0.11851   0.24533   1.000
    C261    C    0.00289   0.61852   0.24532   1.000
    C262    C    0.50288   0.11851   0.24533   1.000
    C263    C    0.50288   0.61852   0.24532   1.000
    C264    C    0.09270   0.03098   0.12360   1.000
    C265    C    0.09271   0.53098   0.12300   1.000
    C266    C    0.59270   0.03098   0.12360   1.000
    C267    C    0.59270   0.53098   0.12359   1.000
    C268    C    0.07788   0.47007   0.07702   1.000
    C269    C    0.07788   0.97008   0.07702   1.000
    C270    C    0.57788   0.47007   0.07702   1.000
    C271    C    0.57788   0.97007   0.07702   1.000
    C272    C    0.12243   0.16788   0.19658   1.000
    C273    C    0.12243   0.66788   0.19658   1.000
    C274    C    0.62243   0.16787   0.19659   1.000
    C275    C    0.62243   0.66788   0.19658   1.000
    C276    C    0.05322   0.11221   0.19491   1.000
    C277    C    0.05322   0.61221   0.19491   1.000
    C278    C    0.55322   0.11221   0.19491   1.000
    C279    C    0.55322   0.61221   0.19491   1.000
    C280    C    0.46311   0.00272   0.11489   1.000
    C281    C    0.46311   0.50272   0.11488   1.000
    C282    C    0.96310   0.00272   0.11480   1.000
    C283    C    0.96311   0.50272   0.11488   1.000
    C284    C    0.44765   0.44090   0.06989   1.000
    C285    C    0.44765   0.94091   0.06980   1.000
    C286    C    0.94764   0.44090   0.06989   1.000
    C287    C    0.94765   0.94091   0.06989   1.000
    C288    C    0.03579   0.04828   0.14349   1.000
    C289    C    0.03579   0.54828   0.14349   1.000
    C290    C    0.53579   0.04828   0.14349   1.000
    C291    C    0.53579   0.54829   0.14349   1.000
    C292    C    0.14175   0.22633   0.24877   1.000
    C293    C    0.14176   0.72633   0.24876   1.000
    C294    C    0.64175   0.22632   0.24877   1.000
    C295    C    0.64176   0.72633   0.24876   1.000
    C296    C    0.09216   0.23159   0.30058   1.000
    C297    C    0.09217   0.73159   0.30057   1.000
    C298    C    0.59216   0.23159   0.30058   1.000
    C299    C    0.59217   0.73159   0.30058   1.000
    C300    C    0.00501   0.42446   0.05109   1.000
    C301    C    0.00501   0.92447   0.05109   1.000
    C302    C    0.50501   0.42447   0.05100   1.000
    C303    C    0.50501   0.92446   0.05109   1.000
loop_
    _geom_bond_atom_site_label_1
    _geom_bond_atom_site_label_2
    _geom_bond_distance
    _geom_bond_site_symmetry_2
    _ccdc_geom_bond_type
    H113   C302      1.08657      .   S
    H114   C303      1.08709      .   S
    H116   C301      1.08709  1_655   S
    H115   C300      1.08701  1_655   S
    C302   C284      1.39884      .   S
    C302   C270      1.39794      .   S
    C303   C285      1.39823      .   S
    C303   C271      1.39763      .   S
    C301   C287      1.39871  1_455   S
    C301   C269      1.39761      .   S
    C300   C286      1.39870  1_455   S
    C300   C268      1.39761      .   S
    C285   C280      1.40136  1_565   S
    C284   C281      1.40073      .   S
    C286   C283      1.40074      .   S
    C287   C282      1.40003  1_565   S
    C271   C266      1.39906  1_565   S
    C270   C267      1.39910      .   S
    C269   C264      1.39907  1_565   S
    C268   C265      1.39452      .   S
    C282   H103      1.08981      .   S
    C282   C288      1.40594  1_655   S
    C283   H104      1.08953      .   S
    C283   C289      1.40559  1_655   S
    C281   H102      1.08953      .   S
    C281   C291      1.40546      .   S
    C280   H101      1.08952      .   S
    C280   C290      1.40542      .   S
    C265   C289      1.40808      .   S
    C265   H94       1.09197      .   S
    C267   C291      1.40582      .   S
    C267   H96       1.08914      .   S
    C264   C288      1.40577      .   S
    C264   H93       1.08914      .   S
    C266   C290      1.40577      .   S
    C266   H95       1.08914      .   S
    C291   C279      1.48076      .   S
    C290   C278      1.48081      .   S
    C289   C277      1.48080      .   S
    C288   C276      1.48078      .   S
    H100   C275      1.08917      .   S
    H98    C273      1.08916      .   S
    H97    C272      1.08905      .   S
    H99    C274      1.08916      .   S
    H56    C105      1.08841      .   S
    H57    C106      1.08841      .   S
    H58    C107      1.08837      .   S
    H59    C108      1.08840      .   S
    C276   C272      1.40856      .   S
    C276   C260      1.40721      .   S
    C277   C273      1.40856      .   S
    C277   C261      1.40708      .   S
    C278   C274      1.40853      .   S
    C278   C262      1.40720      .   S
    C279   C275      1.40856      .   S
    C279   C263      1.40711      .   S
    C272   C292      1.38785      .   S
    C273   C293      1.38777      .   S
    C275   C295      1.38777      .   S
    C274   C294      1.38777      .   S
    C250   C107      1.40287      .   S
    C250   C246      1.40470      .   S
    C251   C108      1.40286      .   S
    C251   C247      1.40461      .   S
    C249   C106      1.40286      .   S
    C249   C245      1.40464      .   S
    C248   C105      1.40287      .   S
    C248   C244      1.40461      .   S
    C108   C215      1.39153      .   S
    C107   C214      1.39154      .   S
    C106   C213      1.39153      .   S
    C105   C212      1.39155      .   S
    C261   H92       1.08968  1_455   S
    C261   C257      1.39158      .   S
    C263   H90       1.08956      .   S
    C263   C259      1.39157      .   S
    C260   H91       1.08964  1_455   S
    C260   C256      1.39139      .   S
    C262   H89       1.08953      .   S
    C262   C258      1.39139      .   S
    C295   H112      1.08854      .   S
    C295   C299      1.40467      .   S
    C293   H110      1.08863      .   S
    C293   C297      1.40458      .   S
    C292   H109      1.08855      .   S
    C292   C296      1.40457      .   S
    C294   H111      1.08854      .   S
    C294   C298      1.40464      .   S
    H79    C246      1.08842      .   S
    H77    C244      1.08852      .   S
    H78    C245      1.08855      .   S
    H80    C247      1.08854      .   S
    C247   C227      1.38792      .   S
    C245   C225      1.38791      .   S
    C246   C226      1.38792      .   S
    C244   C224      1.38792      .   S
    H61    C213      1.08954      .   S
    H60    C212      1.08955      .   S
    H63    C215      1.08956      .   S
    H62    C214      1.08955      .   S
    C212   C228      1.40722      .   S
    C213   C229      1.40709      .   S
    C214   C230      1.40721      .   S
    C215   C231      1.40711      .   S
    C258   C298      1.40284      .   S
    C258   H87       1.08861      .   S
    C256   C296      1.40285      .   S
    C256   H85       1.08789  1_455   S
    C257   C297      1.40288      .   S
    C257   H86       1.08845  1_455   S
    C259   C299      1.40286      .   S
    C259   H88       1.08846      .   S
    C225   C229      1.40859      .   S
    C225   H69       1.08927      .   S
    C227   C231      1.40857      .   S
    C227   H71       1.08905      .   S
    C226   C230      1.40858      .   S
    C226   H70       1.08915      .   S
    C224   C228      1.40857      .   S
    C224   H68       1.08915      .   S
    C231   C243      1.48079      .   S
    C229   C241      1.48081      .   S
    C228   C240      1.48083      .   S
    C230   C242      1.48080      .   S
    H66    C218      1.08914      .   S
    H65    C217      1.08913      .   S
    H67    C219      1.08915      .   S
    H64    C216      1.08911      .   S
    C241   C219      1.40579      .   S
    C241   C233      1.40523      .   S
    C243   C217      1.40597  1_655   S
    C243   C235      1.40543      .   S
    C240   C218      1.40577      .   S
    C240   C232      1.40539      .   S
    C242   C216      1.40592  1_655   S
    C242   C234      1.40539      .   S
    H72    C232      1.08953      .   S
    H73    C233      1.08936      .   S
    H74    C234      1.08954      .   S
    H75    C235      1.08953      .   S
    C218   C223      1.39912      .   S
    C219   C222      1.39905  1_565   S
    C217   C220      1.39899  1_565   S
    C216   C221      1.39914      .   S
    C233   C238      1.40095  1_565   S
    C235   C236      1.40063  1_665   S
    C232   C239      1.40073      .   S
    C234   C237      1.40079  1_655   S
    C221   C253      1.39776      .   S
    C220   C252      1.39777      .   S
    C223   C255      1.39778      .   S
    C222   C254      1.39775      .   S
    C236   C252      1.39854      .   S
    C237   C253      1.39852      .   S
    C238   C254      1.39857      .   S
    C239   C255      1.39855      .   S
    C255   H84       1.08710      .   S
    C254   H83       1.08710      .   S
    C253   H82       1.08714      .   S
    C252   H81       1.08712      .   S
    H24    C161      1.08712      .   S
    H25    C162      1.08709      .   S
    H26    C163      1.08711      .   S
    H27    C164      1.08711      .   S
    C161   C145      1.39855      .   S
    C161   C129      1.39745      .   S
    C164   C148      1.39855      .   S
    C164   C132      1.39776      .   S
    C163   C147      1.39854      .   S
    C163   C131      1.39777      .   S
    C162   C146      1.39846      .   S
    C162   C130      1.39773      .   S
    C146   C143      1.40081  1_565   S
    C145   C144      1.40073      .   S
    C147   C142      1.40076  1_655   S
    C148   C141      1.40064  1_665   S
    C129   C126      1.39974      .   S
    C130   C125      1.39906  1_565   S
    C131   C128      1.39909      .   S
    C132   C127      1.39859  1_565   S
    C144   H19       1.08952      .   S
    C144   C152      1.40540      .   S
    C143   H18       1.08952      .   S
    C143   C151      1.40540      .   S
    C142   H17       1.08952      .   S
    C142   C150      1.40538      .   S
    C141   H16       1.08954      .   S
    C141   C149      1.40542      .   S
    C127   C149      1.40616  1_655   S
    C127   H10       1.08937      .   S
    C128   C150      1.40595  1_655   S
    C128   H11       1.08914      .   S
    C125   C151      1.40577      .   S
    C125   H8        1.08912      .   S
    C126   C152      1.40577      .   S
    C126   H9        1.08912      .   S
    C150   C138      1.48084      .   S
    C151   C139      1.48040      .   S
    C152   C140      1.48083      .   S
    C149   C137      1.48083      .   S
    H12    C133      1.09000      .   S
    H14    C135      1.08915      .   S
    H13    C134      1.08915      .   S
    H15    C136      1.08916      .   S
    H31    C76       0.84025  1_455   S
    H29    C166      1.08847      .   S
    H28    C165      1.08847      .   S
    H30    C167      0.84034  1_455   S
    C139   C135      1.40845      .   S
    C139   C123      1.40779      .   S
    C140   C136      1.40857      .   S
    C140   C124      1.40722      .   S
    C138   C134      1.40857      .   S
    C138   C122      1.40721      .   S
    C137   C133      1.40858      .   S
    C137   C121      1.40711      .   S
    C134   C154      1.38792      .   S
    C135   C155      1.38792      .   S
    C136   C156      1.38792      .   S
    C133   C153      1.38792      .   S
    C204   C165      1.40285      .   S
    C204   C200      1.40457      .   S
    C205   C166      1.40286      .   S
    C205   C201      1.40457      .   S
    C206   C167      1.40285      .   S
    C206   C202      1.40460      .   S
    C207   C76       1.40288      .   S
    C207   C203      1.40461      .   S
    C76    C171      1.39157      .   S
    C166   C169      1.39147      .   S
    C165   C168      1.39147      .   S
    C167   C170      1.39149      .   S
    C122   H5        1.08955      .   S
    C122   C118      1.39153      .   S
    C121   H4        1.08955      .   S
    C121   C117      1.39153      .   S
    C123   H6        1.08954      .   S
    C123   C119      1.39153      .   S
    C124   H7        1.08954      .   S
    C124   C120      1.39153      .   S
    C156   H23       1.08854      .   S
    C156   C160      1.40461      .   S
    C155   H22       1.08853      .   S
    C155   C159      1.40472      .   S
    C154   H21       1.08857      .   S
    C154   C158      1.40462      .   S
    C153   H20       1.08854      .   S
    C153   C157      1.40462      .   S
    H49    C201      1.08853      .   S
    H51    C203      1.08852      .   S
    H50    C202      1.08855      .   S
    H48    C200      1.08854      .   S
    C200   C180      1.38786      .   S
    C203   C183      1.38776      .   S
    C202   C182      1.38786      .   S
    C201   C181      1.38778      .   S
    H33    C171      1.08966  1_455   S
    H35    C169      1.08954      .   S
    H32    C170      1.08963  1_455   S
    H34    C168      1.08953      .   S
    C169   C185      1.40721      .   S
    C168   C184      1.40720      .   S
    C170   C186      1.40720      .   S
    C171   C187      1.40720      .   S
    C120   C160      1.40287      .   S
    C120   H3        1.08839      .   S
    C119   C159      1.40288      .   S
    C119   H2        1.08839      .   S
    C118   C158      1.40287      .   S
    C118   H1        1.08840      .   S
    C117   C157      1.40287      .   S
    C117   H0        1.08840      .   S
    C181   C185      1.40854      .   S
    C181   H41       1.08918      .   S
    C183   C187      1.40854      .   S
    C183   H43       1.08917      .   S
    C180   C184      1.40856      .   S
    C180   H40       1.08905      .   S
    C182   C186      1.40856      .   S
    C182   H42       1.08916      .   S
    C184   C196      1.48077      .   S
    C185   C197      1.48074      .   S
    C186   C198      1.48079      .   S
    C187   C199      1.48078      .   S
    H36    C172      1.08916      .   S
    H37    C173      1.08915      .   S
    H38    C174      1.08915      .   S
    H39    C175      1.08871      .   S
    C199   C175      1.40548      .   S
    C199   C189      1.40556  1_655   S
    C198   C174      1.40581      .   S
    C198   C188      1.40555  1_655   S
    C197   C173      1.40581      .   S
    C197   C191      1.40543      .   S
    C196   C172      1.40579      .   S
    C196   C190      1.40543      .   S
    H44    C188      1.08954      .   S
    H45    C189      1.08952      .   S
    H46    C190      1.08954      .   S
    H47    C191      1.08952      .   S
    C175   C178      1.39970  1_565   S
    C172   C177      1.39911      .   S
    C174   C179      1.39909      .   S
    C173   C176      1.39902  1_565   S
    C191   C194      1.40071  1_565   S
    C190   C195      1.40080      .   S
    C189   C192      1.40069  1_565   S
    C188   C193      1.40078      .   S
    C179   C211      1.39763      .   S
    C178   C210      1.39763      .   S
    C177   C209      1.39762      .   S
    C176   C208      1.39765      .   S
    C192   C210      1.39870  1_455   S
    C195   C209      1.39851      .   S
    C194   C208      1.39855      .   S
    C193   C211      1.39871  1_455   S
    C211   H53       1.08701  1_655   S
    C210   H52       1.08701  1_655   S
    C209   H55       1.08709      .   S
    C208   H54       1.08708      .   S
