# CIF file generated by openbabel 2.4.90, see http://openbabel.sf.net
data_I
_chemical_name_common ''
_cell_length_a 20.297
_cell_length_b 22.807
_cell_length_c 18.089
_cell_angle_alpha 99.858
_cell_angle_beta 89.934
_cell_angle_gamma 116.458
_space_group_name_H-M_alt 'P 1'
_space_group_name_Hall 'P 1'
loop_
    _symmetry_equiv_pos_as_xyz
    x,y,z
loop_
    _atom_site_label
    _atom_site_type_symbol
    _atom_site_fract_x
    _atom_site_fract_y
    _atom_site_fract_z
    _atom_site_occupancy
    Cd0     Cd   0.23007   0.90465   0.97388   1.000
    Cd1     Cd   0.73006   0.40465   0.97388   1.000
    Cd2     Cd   0.73007   0.90465   0.97388   1.000
    Cd3     Cd   0.32535   0.09531   0.52608   1.000
    Cd4     Cd   0.32536   0.59532   0.52608   1.000
    Cd5     Cd   0.82535   0.09531   0.52608   1.000
    Cd6     Cd   0.82535   0.59532   0.52608   1.000
    Cd7     Cd   0.26995   0.09537   0.02610   1.000
    Cd8     Cd   0.26996   0.59538   0.02610   1.000
    Cd9     Cd   0.76995   0.09537   0.02610   1.000
    Cd10    Cd   0.76995   0.59537   0.02610   1.000
    Cd11    Cd   0.17466   0.40471   0.47390   1.000
    Cd12    Cd   0.17467   0.90471   0.47390   1.000
    Cd13    Cd   0.67466   0.40471   0.47390   1.000
    Cd14    Cd   0.67466   0.90471   0.47390   1.000
    Cd15    Cd   0.25001   0.25001   0.00000   1.000
    Cd16    Cd   0.25001   0.75001   0.99998   1.000
    Cd17    Cd   0.75001   0.25001   0.00000   1.000
    Cd18    Cd   0.75001   0.75002   0.99999   1.000
    Cd19    Cd   0.00001   0.25001   0.49999   1.000
    Cd20    Cd   0.00000   0.75001   0.49998   1.000
    Cd21    Cd   0.50001   0.25001   0.49999   1.000
    Cd22    Cd   0.50001   0.75001   0.49999   1.000
    Cd23    Cd   0.23007   0.40465   0.97388   1.000
    C24     C    0.13044   0.10923   0.95610   1.000
    C25     C    0.13044   0.60923   0.95615   1.000
    C26     C    0.63043   0.10922   0.95616   1.000
    C27     C    0.47884   0.10924   0.45610   1.000
    C28     C    0.02117   0.39078   0.54388   1.000
    C29     C    0.02117   0.89078   0.54387   1.000
    C30     C    0.52117   0.39078   0.54380   1.000
    C31     C    0.52117   0.89078   0.54380   1.000
    C32     C    0.17678   0.29366   0.85803   1.000
    C33     C    0.17679   0.79367   0.85803   1.000
    C34     C    0.67678   0.29366   0.85803   1.000
    C35     C    0.67678   0.79367   0.85803   1.000
    C36     C    0.31417   0.45329   0.55396   1.000
    C37     C    0.31417   0.95329   0.55390   1.000
    C38     C    0.81417   0.45329   0.55396   1.000
    C39     C    0.81417   0.95329   0.55396   1.000
    O40     O    0.08955   0.90746   0.55631   1.000
    O41     O    0.58954   0.40745   0.55631   1.000
    O42     O    0.58955   0.90745   0.55631   1.000
    O43     O    0.42526   0.20102   0.58920   1.000
    O44     O    0.42527   0.70103   0.58920   1.000
    O45     O    0.92526   0.20102   0.58920   1.000
    O46     O    0.92526   0.70103   0.58920   1.000
    O47     O    0.32061   0.15771   0.64355   1.000
    C48     C    0.63044   0.60923   0.95616   1.000
    C49     C    0.38293   0.20627   0.64194   1.000
    C50     C    0.38293   0.70628   0.64194   1.000
    C51     C    0.88292   0.20627   0.64194   1.000
    C52     C    0.88293   0.70628   0.64193   1.000
    C53     C    0.36091   0.04671   0.94596   1.000
    C54     C    0.36092   0.54671   0.94596   1.000
    C55     C    0.86091   0.04671   0.94590   1.000
    C56     C    0.86091   0.54671   0.94596   1.000
    C57     C    0.47885   0.60924   0.45610   1.000
    C58     C    0.97884   0.10924   0.45610   1.000
    C59     C    0.97884   0.60924   0.45610   1.000
    C60     C    0.32324   0.20636   0.14195   1.000
    C61     C    0.32324   0.70636   0.14194   1.000
    C62     C    0.82323   0.20636   0.14195   1.000
    C63     C    0.82324   0.70636   0.14195   1.000
    C64     C    0.18585   0.04674   0.44603   1.000
    C65     C    0.18585   0.54674   0.44603   1.000
    C66     C    0.68585   0.04674   0.44603   1.000
    C67     C    0.68585   0.54674   0.44603   1.000
    C68     C    0.36958   0.39079   0.04382   1.000
    C69     C    0.36959   0.89079   0.04382   1.000
    C70     C    0.86958   0.39079   0.04382   1.000
    C71     C    0.86958   0.89079   0.04382   1.000
    C72     C    0.11709   0.29375   0.35804   1.000
    C73     C    0.11709   0.79375   0.35804   1.000
    C74     C    0.61709   0.29375   0.35800   1.000
    C75     C    0.61709   0.79375   0.35804   1.000
    C76     C    0.13911   0.45332   0.05403   1.000
    C77     C    0.13912   0.95332   0.05403   1.000
    C78     C    0.63911   0.45332   0.05400   1.000
    C79     C    0.63911   0.95332   0.05403   1.000
    O80     O    0.22415   0.29881   0.91082   1.000
    O81     O    0.22415   0.79881   0.91082   1.000
    O82     O    0.72414   0.29881   0.91082   1.000
    O83     O    0.72415   0.79881   0.91082   1.000
    O84     O    0.16334   0.34235   0.85634   1.000
    O85     O    0.16334   0.84236   0.85634   1.000
    O86     O    0.66333   0.34235   0.85634   1.000
    O87     O    0.66334   0.84236   0.85634   1.000
    O88     O    0.27100   0.39384   0.52158   1.000
    O89     O    0.27100   0.89384   0.52158   1.000
    O90     O    0.77099   0.39383   0.52158   1.000
    O91     O    0.77100   0.89384   0.52158   1.000
    O92     O    0.29193   0.49850   0.56619   1.000
    O93     O    0.29193   0.99850   0.56619   1.000
    O94     O    0.79192   0.49849   0.56619   1.000
    O95     O    0.79193   0.99850   0.56619   1.000
    O96     O    0.47186   0.33237   0.51283   1.000
    O97     O    0.47186   0.83237   0.51283   1.000
    O98     O    0.97186   0.33237   0.51283   1.000
    O99     O    0.97186   0.83238   0.51283   1.000
    O100    O    0.08955   0.40745   0.55631   1.000
    O101    O    0.32061   0.65772   0.64355   1.000
    O102    O    0.82060   0.15771   0.64350   1.000
    O103    O    0.82061   0.65771   0.64355   1.000
    O104    O    0.37722   0.10618   0.97832   1.000
    O105    O    0.37722   0.60618   0.97832   1.000
    O106    O    0.87721   0.10617   0.97832   1.000
    O107    O    0.87721   0.60618   0.97832   1.000
    O108    O    0.29344   0.00150   0.93370   1.000
    O109    O    0.29344   0.50150   0.93375   1.000
    O110    O    0.79344   0.00150   0.93375   1.000
    O111    O    0.79344   0.50150   0.93375   1.000
    O112    O    0.13944   0.16759   0.98720   1.000
    O113    O    0.13944   0.66760   0.98720   1.000
    O114    O    0.63943   0.16759   0.98720   1.000
    O115    O    0.63944   0.66760   0.98720   1.000
    O116    O    0.18223   0.09264   0.94373   1.000
    O117    O    0.18223   0.59265   0.94373   1.000
    O118    O    0.68222   0.09264   0.94373   1.000
    O119    O    0.68222   0.59265   0.94373   1.000
    O120    O    0.27586   0.20121   0.08917   1.000
    O121    O    0.27587   0.70122   0.08916   1.000
    O122    O    0.77586   0.20121   0.08917   1.000
    O123    O    0.77587   0.70122   0.08916   1.000
    O124    O    0.33669   0.15767   0.14363   1.000
    O125    O    0.33670   0.65767   0.14363   1.000
    O126    O    0.83669   0.15767   0.14363   1.000
    O127    O    0.83669   0.65768   0.14363   1.000
    O128    O    0.22902   0.10619   0.47840   1.000
    O129    O    0.22902   0.60620   0.47840   1.000
    O130    O    0.72902   0.10619   0.47840   1.000
    O131    O    0.72902   0.60620   0.47840   1.000
    O132    O    0.20809   0.00153   0.43380   1.000
    O133    O    0.20810   0.50153   0.43380   1.000
    O134    O    0.70809   0.00153   0.43380   1.000
    O135    O    0.70809   0.50154   0.43380   1.000
    O136    O    0.02815   0.16765   0.48715   1.000
    O137    O    0.02816   0.66765   0.48714   1.000
    O138    O    0.52815   0.16765   0.48710   1.000
    O139    O    0.52815   0.66765   0.48714   1.000
    O140    O    0.41046   0.09256   0.44367   1.000
    O141    O    0.41047   0.59256   0.44367   1.000
    O142    O    0.91046   0.09256   0.44367   1.000
    O143    O    0.91046   0.59256   0.44367   1.000
    O144    O    0.07476   0.29900   0.41078   1.000
    O145    O    0.07476   0.79900   0.41070   1.000
    O146    O    0.57476   0.29900   0.41078   1.000
    O147    O    0.57476   0.79900   0.41078   1.000
    O148    O    0.17941   0.34231   0.35640   1.000
    O149    O    0.17942   0.84231   0.35642   1.000
    O150    O    0.67941   0.34231   0.35642   1.000
    O151    O    0.67941   0.84231   0.35642   1.000
    O152    O    0.12282   0.39386   0.02166   1.000
    O153    O    0.12282   0.89386   0.02166   1.000
    O154    O    0.62281   0.39386   0.02166   1.000
    O155    O    0.62281   0.89386   0.02166   1.000
    O156    O    0.20658   0.49853   0.06625   1.000
    O157    O    0.20659   0.99854   0.06625   1.000
    O158    O    0.70658   0.49853   0.06625   1.000
    O159    O    0.70658   0.99853   0.06620   1.000
    O160    O    0.36059   0.33242   0.01277   1.000
    O161    O    0.36060   0.83242   0.01277   1.000
    O162    O    0.86059   0.33242   0.01277   1.000
    O163    O    0.86059   0.83242   0.01277   1.000
    O164    O    0.31779   0.40736   0.05625   1.000
    O165    O    0.31780   0.90737   0.05625   1.000
    O166    O    0.81779   0.40736   0.05625   1.000
    O167    O    0.81779   0.90736   0.05625   1.000
loop_
    _geom_bond_atom_site_label_1
    _geom_bond_atom_site_label_2
    _geom_bond_distance
    _geom_bond_site_symmetry_2
    _ccdc_geom_bond_type
    O161   C69       1.28397      .   S
    O161   Cd16      2.17192  1_554   S
    O162   C70       1.28399      .   S
    O162   Cd17      2.17182      .   S
    O163   C71       1.28399      .   S
    O163   Cd18      2.17180  1_554   S
    O160   C68       1.28401      .   S
    O160   Cd15      2.17181      .   S
    O152   C76       1.27284      .   S
    O152   Cd23      2.26664  1_554   S
    O153   C77       1.27286      .   S
    O153   Cd0       2.26664  1_554   S
    O154   C78       1.27273      .   S
    O154   Cd1       2.26663  1_554   S
    O155   C79       1.27282      .   S
    O155   Cd2       2.26665  1_554   S
    Cd9    O159      2.25241  1_545   S
    Cd9    O126      2.37296      .   S
    Cd9    O118      2.29572  1_554   S
    Cd9    O106      2.26667  1_554   S
    Cd10   O158      2.25294      .   S
    Cd10   O127      2.37297      .   S
    Cd10   O119      2.29571  1_554   S
    Cd10   O107      2.26669  1_554   S
    Cd8    O156      2.25296      .   S
    Cd8    O125      2.37294      .   S
    Cd8    O117      2.29569  1_554   S
    Cd8    O105      2.26667  1_554   S
    Cd7    O157      2.25280  1_545   S
    Cd7    O124      2.37296      .   S
    Cd7    O116      2.29571  1_554   S
    Cd7    O104      2.26668  1_554   S
    C71    O167      1.27392      .   S
    C68    O164      1.27389      .   S
    C69    O165      1.27393      .   S
    C70    O166      1.27390      .   S
    C78    O158      1.28530      .   S
    C76    O156      1.28530      .   S
    C77    O157      1.28528      .   S
    C79    O159      1.28525      .   S
    O164   Cd23      2.29576  1_554   S
    O165   Cd0       2.29576  1_554   S
    O166   Cd1       2.29576  1_554   S
    O167   Cd2       2.29573  1_554   S
    O123   C63       1.30890      .   S
    O123   Cd18      2.29193  1_554   S
    O121   C61       1.30878      .   S
    O121   Cd16      2.29204  1_554   S
    O120   C60       1.30879      .   S
    O120   Cd15      2.29192      .   S
    O122   C62       1.30874      .   S
    O122   Cd17      2.29192      .   S
    C61    O125      1.26116      .   S
    C63    O127      1.26113      .   S
    C60    O124      1.26113      .   S
    C62    O126      1.26117      .   S
    O148   C72       1.26112      .   S
    O148   Cd11      2.37445      .   S
    O150   C74       1.26092      .   S
    O150   Cd13      2.37416      .   S
    O149   C73       1.26108      .   S
    O149   Cd12      2.37417      .   S
    O151   C75       1.26107      .   S
    O151   Cd14      2.37419      .   S
    C74    O146      1.30951      .   S
    C72    O144      1.30894      .   S
    C73    O145      1.30794      .   S
    C75    O147      1.30895      .   S
    O145   Cd20      2.29362      .   S
    O144   Cd19      2.29249      .   S
    O146   Cd21      2.29249      .   S
    O147   Cd22      2.29248      .   S
    O135   C67       1.28539      .   S
    O135   Cd13      2.25291      .   S
    O134   C66       1.28541      .   S
    O134   Cd14      2.25281  1_545   S
    O133   C65       1.28540      .   S
    O133   Cd11      2.25287      .   S
    O132   C64       1.28542      .   S
    O132   Cd12      2.25279  1_545   S
    O141   C57       1.27380      .   S
    O141   Cd4       2.29546      .   S
    O142   C58       1.27378      .   S
    O142   Cd5       2.29545      .   S
    O143   C59       1.27378      .   S
    O143   Cd6       2.29545      .   S
    O140   C27       1.27379      .   S
    O140   Cd3       2.29546      .   S
    C64    O128      1.27276      .   S
    C65    O129      1.27278      .   S
    C66    O130      1.27274      .   S
    C67    O131      1.27275      .   S
    C27    O138      1.28373      .   S
    C57    O139      1.28393      .   S
    C58    O136      1.28405  1_655   S
    C59    O137      1.28402  1_655   S
    Cd11   O88       2.26667      .   S
    Cd11   O100      2.29547      .   S
    Cd14   O91       2.26665      .   S
    Cd14   O42       2.29549      .   S
    Cd13   O90       2.26664      .   S
    Cd13   O41       2.29548      .   S
    Cd12   O89       2.26665      .   S
    Cd12   O40       2.29548      .   S
    O131   Cd6       2.26666      .   S
    O130   Cd5       2.26668      .   S
    O129   Cd4       2.26667      .   S
    O128   Cd3       2.26669      .   S
    O138   Cd21      2.17141      .   S
    O137   Cd20      2.17167      .   S
    O139   Cd22      2.17144      .   S
    O136   Cd19      2.17146      .   S
    Cd20   O99       2.17135  1_455   S
    Cd20   O46       2.29252  1_455   S
    Cd22   O97       2.17146      .   S
    Cd22   O44       2.29242      .   S
    Cd21   O96       2.17148      .   S
    Cd21   O43       2.29244      .   S
    Cd19   O98       2.17156  1_455   S
    Cd19   O45       2.29250  1_455   S
    O98    C28       1.28402  1_655   S
    O96    C30       1.28359      .   S
    O97    C31       1.28359      .   S
    O99    C29       1.28397  1_655   S
    O88    C36       1.27278      .   S
    O90    C38       1.27278      .   S
    O91    C39       1.27278      .   S
    O89    C37       1.27248      .   S
    Cd3    O93       2.25279  1_545   S
    Cd3    O47       2.37401      .   S
    Cd6    O94       2.25290      .   S
    Cd6    O103      2.37397      .   S
    Cd5    O95       2.25279  1_545   S
    Cd5    O102      2.37329      .   S
    Cd4    O92       2.25289      .   S
    Cd4    O101      2.37402      .   S
    C30    O41       1.27398      .   S
    C31    O42       1.27397      .   S
    C29    O40       1.27381      .   S
    C28    O100      1.27380      .   S
    C37    O93       1.28543      .   S
    C39    O95       1.28539      .   S
    C38    O94       1.28539      .   S
    C36    O92       1.28539      .   S
    O46    C52       1.30883      .   S
    O43    C49       1.30896      .   S
    O45    C51       1.30899      .   S
    O44    C50       1.30897      .   S
    C52    O103      1.26106      .   S
    C49    O47       1.26106      .   S
    C50    O101      1.26104      .   S
    C51    O102      1.26090      .   S
    O84    C32       1.26113      .   S
    O84    Cd23      2.37305      .   S
    O85    C33       1.26114      .   S
    O85    Cd0       2.37304      .   S
    O86    C34       1.26115      .   S
    O86    Cd1       2.37304      .   S
    O87    C35       1.26115      .   S
    O87    Cd2       2.37304      .   S
    C32    O80       1.30883      .   S
    C33    O81       1.30883      .   S
    C34    O82       1.30882      .   S
    C35    O83       1.30883      .   S
    O80    Cd15      2.29213  1_556   S
    O83    Cd18      2.29198      .   S
    O82    Cd17      2.29214  1_556   S
    O81    Cd16      2.29191      .   S
    O108   C53       1.28533      .   S
    O108   Cd0       2.25328  1_545   S
    O109   C54       1.28530      .   S
    O109   Cd23      2.25296      .   S
    O111   C56       1.28531      .   S
    O111   Cd1       2.25296      .   S
    O110   C55       1.28527      .   S
    O110   Cd2       2.25281  1_545   S
    O119   C48       1.27391      .   S
    O118   C26       1.27391      .   S
    O117   C25       1.27391      .   S
    O116   C24       1.27379      .   S
    C55    O106      1.27312      .   S
    C56    O107      1.27283      .   S
    C54    O105      1.27285      .   S
    C53    O104      1.27285      .   S
    C24    O112      1.28423      .   S
    C25    O113      1.28397      .   S
    C26    O114      1.28396      .   S
    C48    O115      1.28396      .   S
    O112   Cd15      2.17191  1_556   S
    O113   Cd16      2.17182      .   S
    O114   Cd17      2.17190  1_556   S
    O115   Cd18      2.17191      .   S
    O80    Cd23      2.43755      .   S
    O81    Cd0       2.43751      .   S
    O82    Cd1       2.43753      .   S
    O83    Cd2       2.43752      .   S
    O43    Cd3       2.43611      .   S
    O44    Cd4       2.43613      .   S
    O45    Cd5       2.43610      .   S
    O46    Cd6       2.43613      .   S
    O120   Cd7       2.43762      .   S
    O121   Cd8       2.43757      .   S
    O122   Cd9       2.43762      .   S
    O123   Cd10      2.43759      .   S
    O144   Cd11      2.43609      .   S
    O145   Cd12      2.43649      .   S
    O146   Cd13      2.43604      .   S
    O147   Cd14      2.43605      .   S
