# CIF file generated by openbabel 2.4.90, see http://openbabel.sf.net
data_I
_chemical_name_common ''
_cell_length_a 20.297
_cell_length_b 22.807
_cell_length_c 18.089
_cell_angle_alpha 99.858
_cell_angle_beta 89.934
_cell_angle_gamma 116.458
_space_group_name_H-M_alt 'P 1'
_space_group_name_Hall 'P 1'
loop_
    _symmetry_equiv_pos_as_xyz
    x,y,z
loop_
    _atom_site_label
    _atom_site_type_symbol
    _atom_site_fract_x
    _atom_site_fract_y
    _atom_site_fract_z
    _atom_site_occupancy
    C0      C    0.13044   0.10923   0.95610   1.000
    C1      C    0.13044   0.60923   0.95615   1.000
    C2      C    0.63043   0.10922   0.95616   1.000
    C3      C    0.47884   0.10924   0.45610   1.000
    C4      C    0.02117   0.39078   0.54388   1.000
    C5      C    0.02117   0.89078   0.54387   1.000
    C6      C    0.52117   0.39078   0.54380   1.000
    C7      C    0.52117   0.89078   0.54380   1.000
    C8      C    0.17678   0.29366   0.85803   1.000
    C9      C    0.17679   0.79367   0.85803   1.000
    C10     C    0.67678   0.29366   0.85803   1.000
    C11     C    0.67678   0.79367   0.85803   1.000
    C12     C    0.31417   0.45329   0.55396   1.000
    C13     C    0.31417   0.95329   0.55390   1.000
    C14     C    0.81417   0.45329   0.55396   1.000
    C15     C    0.81417   0.95329   0.55396   1.000
    C16     C    0.63044   0.60923   0.95616   1.000
    C17     C    0.38293   0.20627   0.64194   1.000
    C18     C    0.38293   0.70628   0.64194   1.000
    C19     C    0.88292   0.20627   0.64194   1.000
    C20     C    0.88293   0.70628   0.64193   1.000
    C21     C    0.36091   0.04671   0.94596   1.000
    C22     C    0.36092   0.54671   0.94596   1.000
    C23     C    0.86091   0.04671   0.94590   1.000
    C24     C    0.86091   0.54671   0.94596   1.000
    C25     C    0.47885   0.60924   0.45610   1.000
    C26     C    0.97884   0.10924   0.45610   1.000
    C27     C    0.97884   0.60924   0.45610   1.000
    C28     C    0.32324   0.20636   0.14195   1.000
    C29     C    0.32324   0.70636   0.14194   1.000
    C30     C    0.82323   0.20636   0.14195   1.000
    C31     C    0.82324   0.70636   0.14195   1.000
    C32     C    0.18585   0.04674   0.44603   1.000
    C33     C    0.18585   0.54674   0.44603   1.000
    C34     C    0.68585   0.04674   0.44603   1.000
    C35     C    0.68585   0.54674   0.44603   1.000
    C36     C    0.36958   0.39079   0.04382   1.000
    C37     C    0.36959   0.89079   0.04382   1.000
    C38     C    0.86958   0.39079   0.04382   1.000
    C39     C    0.86958   0.89079   0.04382   1.000
    C40     C    0.11709   0.29375   0.35804   1.000
    C41     C    0.11709   0.79375   0.35804   1.000
    C42     C    0.61709   0.29375   0.35800   1.000
    C43     C    0.61709   0.79375   0.35804   1.000
    C44     C    0.13911   0.45332   0.05403   1.000
    C45     C    0.13912   0.95332   0.05403   1.000
    C46     C    0.63911   0.45332   0.05400   1.000
    C47     C    0.63911   0.95332   0.05403   1.000
