# CIF file generated by openbabel 2.4.90, see http://openbabel.sf.net
data_I
_chemical_name_common ''
_cell_length_a 20.297
_cell_length_b 22.807
_cell_length_c 18.089
_cell_angle_alpha 99.858
_cell_angle_beta 89.934
_cell_angle_gamma 116.458
_space_group_name_H-M_alt 'P 1'
_space_group_name_Hall 'P 1'
loop_
    _symmetry_equiv_pos_as_xyz
    x,y,z
loop_
    _atom_site_label
    _atom_site_type_symbol
    _atom_site_fract_x
    _atom_site_fract_y
    _atom_site_fract_z
    _atom_site_occupancy
    Zr0     Zr   0.23007   0.40465   0.97388   1.000
    Zr1     Zr   0.23007   0.90465   0.97388   1.000
    Zr2     Zr   0.73006   0.40465   0.97388   1.000
    Zr3     Zr   0.73007   0.90465   0.97388   1.000
    Zr4     Zr   0.32535   0.09531   0.52608   1.000
    Zr5     Zr   0.32536   0.59532   0.52608   1.000
    Zr6     Zr   0.82535   0.09531   0.52608   1.000
    Zr7     Zr   0.82535   0.59532   0.52608   1.000
    Zr8     Zr   0.26995   0.09537   0.02610   1.000
    Zr9     Zr   0.26996   0.59538   0.02610   1.000
    Zr10    Zr   0.76995   0.09537   0.02610   1.000
    Zr11    Zr   0.76995   0.59537   0.02610   1.000
    Zr12    Zr   0.17466   0.40471   0.47390   1.000
    Zr13    Zr   0.17467   0.90471   0.47390   1.000
    Zr14    Zr   0.67466   0.40471   0.47390   1.000
    Zr15    Zr   0.67466   0.90471   0.47390   1.000
    Zr16    Zr   0.25001   0.25001   0.00000   1.000
    Zr17    Zr   0.25001   0.75001   0.99998   1.000
    Zr18    Zr   0.75001   0.25001   0.00000   1.000
    Zr19    Zr   0.75001   0.75002   0.99999   1.000
    Zr20    Zr   0.00001   0.25001   0.49999   1.000
    Zr21    Zr   0.00000   0.75001   0.49998   1.000
    Zr22    Zr   0.50001   0.25001   0.49999   1.000
    Zr23    Zr   0.50001   0.75001   0.49999   1.000
    N24     N    0.96554   0.48583   0.59666   1.000
    N25     N    0.96554   0.98583   0.59665   1.000
    N26     N    0.52024   0.98588   0.09665   1.000
    N27     N    0.02023   0.98588   0.09665   1.000
    N28     N    0.52024   0.48588   0.09665   1.000
    N29     N    0.53448   0.51419   0.40332   1.000
    N30     N    0.02024   0.48588   0.09659   1.000
    N31     N    0.03448   0.01419   0.40332   1.000
    N32     N    0.47978   0.01414   0.90332   1.000
    N33     N    0.46554   0.98583   0.59665   1.000
    N34     N    0.47978   0.51414   0.90332   1.000
    N35     N    0.53448   0.01420   0.40332   1.000
    N36     N    0.97978   0.01414   0.90331   1.000
    N37     N    0.97978   0.51414   0.90332   1.000
    N38     N    0.46554   0.48583   0.59665   1.000
    N39     N    0.03448   0.51419   0.40332   1.000
    C40     C    0.97249   0.62315   0.46230   1.000
    O41     O    0.99308   0.58618   0.44275   1.000
    O42     O    0.92020   0.60855   0.47359   1.000
    O43     O    0.99328   0.66599   0.47793   1.000
    C44     C    0.12376   0.81169   0.37505   1.000
    O45     O    0.10611   0.76464   0.33166   1.000
    O46     O    0.08057   0.79310   0.41520   1.000
    C47     C    0.70765   0.55149   0.45274   1.000
    O48     O    0.69951   0.50231   0.45330   1.000
    O49     O    0.64916   0.53889   0.43583   1.000
    O50     O    0.74242   0.57612   0.47749   1.000
    C51     C    0.52752   0.37687   0.53765   1.000
    O52     O    0.50673   0.33403   0.52203   1.000
    O53     O    0.57981   0.39147   0.52638   1.000
    O54     O    0.50694   0.41384   0.55720   1.000
    C55     C    0.87627   0.68834   0.62489   1.000
    O56     O    0.89347   0.73539   0.66830   1.000
    O57     O    0.91945   0.70693   0.58474   1.000
    C58     C    0.62375   0.31169   0.37507   1.000
    O59     O    0.58057   0.29310   0.41523   1.000
    O60     O    0.60610   0.26464   0.33166   1.000
    C61     C    0.20765   0.05149   0.45274   1.000
    O62     O    0.24242   0.07612   0.47749   1.000
    O63     O    0.14917   0.03888   0.43583   1.000
    O64     O    0.19952   0.00231   0.45330   1.000
    C65     C    0.29237   0.94854   0.54722   1.000
    O66     O    0.35086   0.96114   0.56413   1.000
    O67     O    0.30051   0.99772   0.54668   1.000
    O68     O    0.25760   0.92391   0.52248   1.000
    C69     C    0.79236   0.44854   0.54724   1.000
    O70     O    0.80050   0.49772   0.54669   1.000
    O71     O    0.75759   0.42390   0.52249   1.000
    O72     O    0.85085   0.46114   0.56415   1.000
    C73     C    0.02753   0.87687   0.53767   1.000
    O74     O    0.07982   0.89148   0.52639   1.000
    O75     O    0.00694   0.91385   0.55722   1.000
    O76     O    0.00673   0.83403   0.52204   1.000
    C77     C    0.37627   0.18834   0.62490   1.000
    O78     O    0.41945   0.20693   0.58475   1.000
    O79     O    0.39391   0.23538   0.66831   1.000
    C80     C    0.47248   0.12315   0.46229   1.000
    O81     O    0.49328   0.16599   0.47792   1.000
    O82     O    0.42020   0.10854   0.47358   1.000
    O83     O    0.49308   0.08618   0.44274   1.000
    C84     C    0.81193   0.68842   0.12491   1.000
    O85     O    0.78744   0.70702   0.08474   1.000
    O86     O    0.84142   0.73548   0.16830   1.000
    C87     C    0.84385   0.05146   0.95266   1.000
    O88     O    0.88975   0.03885   0.93576   1.000
    O89     O    0.83372   0.07612   0.97743   1.000
    O90     O    0.80280   0.00227   0.95324   1.000
    C91     C    0.84932   0.87686   0.03761   1.000
    O92     O    0.82731   0.83404   0.02200   1.000
    O93     O    0.81162   0.89143   0.02634   1.000
    O94     O    0.90687   0.91386   0.05718   1.000
    C95     C    0.68809   0.31161   0.87506   1.000
    O96     O    0.71258   0.29301   0.91524   1.000
    O97     O    0.65860   0.26455   0.83168   1.000
    C98     C    0.84932   0.37686   0.03761   1.000
    O99     O    0.90687   0.41386   0.05717   1.000
    O100    O    0.82731   0.33404   0.02200   1.000
    O101    O    0.81162   0.39143   0.02634   1.000
    C102    C    0.65617   0.94857   0.04730   1.000
    O103    O    0.69722   0.99776   0.04672   1.000
    O104    O    0.66631   0.92391   0.02253   1.000
    O105    O    0.61027   0.96118   0.06419   1.000
    C106    C    0.81193   0.18841   0.12492   1.000
    O107    O    0.78743   0.20701   0.08475   1.000
    O108    O    0.84141   0.23547   0.16830   1.000
    C109    C    0.84386   0.55146   0.95268   1.000
    O110    O    0.88975   0.53885   0.93578   1.000
    O111    O    0.80280   0.50227   0.95325   1.000
    O112    O    0.83372   0.57612   0.97744   1.000
    C113    C    0.65070   0.12315   0.96236   1.000
    O114    O    0.68839   0.10858   0.97364   1.000
    O115    O    0.67271   0.16598   0.97798   1.000
    O116    O    0.59314   0.08615   0.94279   1.000
    C117    C    0.68809   0.81161   0.87506   1.000
    O118    O    0.71259   0.79301   0.91523   1.000
    O119    O    0.65860   0.76456   0.83168   1.000
    C120    C    0.65617   0.44857   0.04730   1.000
    O121    O    0.61027   0.46118   0.06419   1.000
    O122    O    0.66630   0.42391   0.02254   1.000
    O123    O    0.69722   0.49776   0.04674   1.000
    C124    C    0.65070   0.62316   0.96236   1.000
    O125    O    0.59315   0.58616   0.94279   1.000
    O126    O    0.68839   0.60858   0.97364   1.000
    O127    O    0.67271   0.66598   0.97798   1.000
    C128    C    0.15070   0.62316   0.96236   1.000
    O129    O    0.18840   0.60858   0.97364   1.000
    O130    O    0.17272   0.66598   0.97797   1.000
    O131    O    0.09315   0.58616   0.94279   1.000
    C132    C    0.34932   0.37686   0.03761   1.000
    O133    O    0.40687   0.41386   0.05718   1.000
    O134    O    0.31163   0.39143   0.02634   1.000
    O135    O    0.32731   0.33404   0.02200   1.000
    C136    C    0.34386   0.55147   0.95268   1.000
    O137    O    0.30281   0.50227   0.95325   1.000
    O138    O    0.38976   0.53885   0.93578   1.000
    O139    O    0.33372   0.57612   0.97744   1.000
    C140    C    0.18809   0.81161   0.87506   1.000
    O141    O    0.15861   0.76456   0.83168   1.000
    O142    O    0.21259   0.79301   0.91523   1.000
    C143    C    0.15617   0.44857   0.04731   1.000
    O144    O    0.16631   0.42391   0.02254   1.000
    O145    O    0.19722   0.49776   0.04674   1.000
    O146    O    0.11027   0.46118   0.06419   1.000
    C147    C    0.18809   0.31161   0.87506   1.000
    O148    O    0.21259   0.29301   0.91524   1.000
    O149    O    0.15860   0.26455   0.83168   1.000
    C150    C    0.34933   0.87686   0.03761   1.000
    O151    O    0.32732   0.83404   0.02199   1.000
    O152    O    0.40688   0.91386   0.05717   1.000
    O153    O    0.31163   0.89143   0.02634   1.000
    C154    C    0.31194   0.68842   0.12491   1.000
    O155    O    0.28744   0.70702   0.08474   1.000
    O156    O    0.34142   0.73548   0.16830   1.000
    C157    C    0.15617   0.94857   0.04731   1.000
    O158    O    0.19722   0.99776   0.04674   1.000
    O159    O    0.16631   0.92392   0.02254   1.000
    O160    O    0.11027   0.96118   0.06420   1.000
    C161    C    0.34386   0.05146   0.95266   1.000
    O162    O    0.33372   0.07612   0.97743   1.000
    O163    O    0.38976   0.03885   0.93577   1.000
    O164    O    0.30281   0.00227   0.95322   1.000
    C165    C    0.31193   0.18841   0.12492   1.000
    O166    O    0.34142   0.23547   0.16830   1.000
    O167    O    0.28744   0.20701   0.08475   1.000
    C168    C    0.15070   0.12315   0.96234   1.000
    O169    O    0.17271   0.16598   0.97797   1.000
    O170    O    0.09315   0.08616   0.94277   1.000
    O171    O    0.18840   0.10858   0.97363   1.000
    C172    C    0.29237   0.44854   0.54724   1.000
    O173    O    0.35086   0.46114   0.56414   1.000
    O174    O    0.30050   0.49772   0.54669   1.000
    O175    O    0.25760   0.42391   0.52249   1.000
    C176    C    0.52753   0.87687   0.53765   1.000
    O177    O    0.50673   0.83403   0.52203   1.000
    O178    O    0.50694   0.91384   0.55720   1.000
    O179    O    0.57982   0.89148   0.52638   1.000
    C180    C    0.87626   0.18833   0.62488   1.000
    O181    O    0.89346   0.23538   0.66830   1.000
    O182    O    0.91945   0.20692   0.58474   1.000
    C183    C    0.62375   0.81169   0.37508   1.000
    O184    O    0.58057   0.79310   0.41523   1.000
    O185    O    0.60610   0.76464   0.33167   1.000
    C186    C    0.20766   0.55149   0.45274   1.000
    O187    O    0.24242   0.57612   0.47749   1.000
    O188    O    0.14917   0.53888   0.43583   1.000
    O189    O    0.19952   0.50230   0.45330   1.000
    C190    C    0.02752   0.37687   0.53767   1.000
    O191    O    0.00673   0.33403   0.52204   1.000
    O192    O    0.07982   0.39147   0.52639   1.000
    O193    O    0.00693   0.41384   0.55723   1.000
    C194    C    0.37627   0.68834   0.62490   1.000
    O195    O    0.39392   0.73539   0.66831   1.000
    O196    O    0.41945   0.70693   0.58475   1.000
    C197    C    0.79236   0.94854   0.54724   1.000
    O198    O    0.80050   0.99772   0.54669   1.000
    O199    O    0.85085   0.96114   0.56415   1.000
    O200    O    0.75760   0.92391   0.52249   1.000
    C201    C    0.47249   0.62315   0.46230   1.000
    O202    O    0.42020   0.60855   0.47359   1.000
    O203    O    0.49328   0.66599   0.47793   1.000
    O204    O    0.49308   0.58618   0.44275   1.000
    C205    C    0.70765   0.05149   0.45274   1.000
    O206    O    0.69951   0.00231   0.45330   1.000
    O207    O    0.74242   0.07612   0.47749   1.000
    O208    O    0.64916   0.03888   0.43583   1.000
    C209    C    0.97248   0.12315   0.46231   1.000
    O210    O    0.99328   0.16599   0.47794   1.000
    O211    O    0.92019   0.10854   0.47359   1.000
    O212    O    0.99307   0.08618   0.44275   1.000
    C213    C    0.12375   0.31168   0.37507   1.000
    O214    O    0.10610   0.26464   0.33167   1.000
    O215    O    0.08057   0.29309   0.41523   1.000
    O216    O    0.36270   0.16284   0.59806   1.000
    O217    O    0.70000   0.83712   0.90190   1.000
    O218    O    0.69999   0.33711   0.90190   1.000
    O219    O    0.86270   0.16284   0.59805   1.000
    O220    O    0.36271   0.66284   0.59806   1.000
    O221    O    0.13732   0.83719   0.40189   1.000
    O222    O    0.80002   0.16291   0.09808   1.000
    O223    O    0.30002   0.16291   0.09808   1.000
    O224    O    0.20000   0.33711   0.90190   1.000
    O225    O    0.63731   0.83719   0.40192   1.000
    O226    O    0.13731   0.33718   0.40191   1.000
    O227    O    0.30003   0.66291   0.09808   1.000
    O228    O    0.80002   0.66291   0.09808   1.000
    O229    O    0.63731   0.33718   0.40191   1.000
    O230    O    0.86271   0.66284   0.59806   1.000
    O231    O    0.20000   0.83712   0.90190   1.000
loop_
    _geom_bond_atom_site_label_1
    _geom_bond_atom_site_label_2
    _geom_bond_distance
    _geom_bond_site_symmetry_2
    _ccdc_geom_bond_type
    C40    O41       1.10565      .   S
    N39    O41       2.17651  1_455   S
    C40    O42       0.99338      .   S
    Zr7    O42       2.06756      .   S
    C40    O43       0.86656      .   S
    Zr21   O43       1.83180  1_455   S
    C44    O45       1.12503      .   S
    N30    O45       6.51333      .   S
    C44    O46       1.11725      .   S
    Zr21   O46       2.25173      .   S
    C47    O48       1.06040      .   S
    Zr14   O48       2.15204      .   S
    C47    O49       1.11901      .   S
    N29    O49       2.19161      .   S
    C47    O50       0.75850      .   S
    Zr7    O50       1.73567      .   S
    C51    O52       0.86649      .   S
    Zr22   O52       1.83166      .   S
    C51    O53       0.99331      .   S
    Zr14   O53       2.06746      .   S
    C51    O54       1.10565      .   S
    N38    O54       2.17655      .   S
    C55    O56       1.12613      .   S
    N36    O56       6.51125  1_545   S
    C55    O57       1.11728      .   S
    Zr21   O57       2.25122  1_455   S
    C58    O59       1.11741      .   S
    Zr22   O59       2.25135      .   S
    C58    O60       1.12512      .   S
    N26    O60       6.51283  1_565   S
    C61    O62       0.75850      .   S
    Zr4    O62       1.73567      .   S
    C61    O63       1.11901      .   S
    N31    O63       2.19161      .   S
    C61    O64       1.06038      .   S
    Zr13   O64       2.15195  1_565   S
    C65    O66       1.11898      .   S
    N33    O66       2.19161      .   S
    C65    O67       1.06032      .   S
    Zr4    O67       2.15185  1_545   S
    C65    O68       0.75845      .   S
    Zr13   O68       1.73563      .   S
    C69    O70       1.06038      .   S
    Zr7    O70       2.15200      .   S
    C69    O71       0.75854      .   S
    Zr14   O71       1.73571      .   S
    C69    O72       1.11902      .   S
    N24    O72       2.19164      .   S
    C73    O74       0.99338      .   S
    Zr13   O74       2.06758      .   S
    C73    O75       1.10565      .   S
    N25    O75       2.17651  1_655   S
    C73    O76       0.86652      .   S
    Zr21   O76       1.83160      .   S
    C77    O78       1.11729      .   S
    Zr22   O78       2.25120      .   S
    C77    O79       1.12514      .   S
    N34    O79       6.51286      .   S
    C80    O81       0.86655      .   S
    Zr22   O81       1.83173      .   S
    C80    O82       0.99339      .   S
    Zr4    O82       2.06760      .   S
    C80    O83       1.10561      .   S
    N35    O83       2.17647      .   S
    C84    O85       1.11777      .   S
    Zr19   O85       2.25175  1_556   S
    C84    O86       1.12527      .   S
    N31    O86       6.51351  1_445   S
    C87    O88       1.11899      .   S
    N36    O88       2.19163      .   S
    C87    O89       0.75893      .   S
    Zr10   O89       1.73618  1_554   S
    C87    O90       1.06023      .   S
    Zr3    O90       2.15175  1_565   S
    C91    O92       0.86613      .   S
    Zr19   O92       1.83123  1_556   S
    C91    O93       0.99381      .   S
    Zr3    O93       2.06828  1_556   S
    C91    O94       1.10556      .   S
    N27    O94       2.17634  1_455   S
    C95    O96       1.11783      .   S
    Zr18   O96       2.25193  1_554   S
    C95    O97       1.12528      .   S
    N33    O97       6.51353  1_565   S
    C98    O99       1.10553      .   S
    N30    O99       2.17624  1_455   S
    C98    O100      0.86613      .   S
    Zr18   O100      1.83124      .   S
    C98    O101      0.99381      .   S
    Zr2    O101      2.06830  1_556   S
    C102   O103      1.06018      .   S
    Zr10   O103      2.15151  1_545   S
    C102   O104      0.75885      .   S
    Zr3    O104      1.73611  1_556   S
    C102   O105      1.11898      .   S
    N26    O105      2.19161      .   S
    C106   O107      1.11772      .   S
    Zr18   O107      2.25170      .   S
    C106   O108      1.12525      .   S
    N39    O108      6.51358  1_455   S
    C109   O110      1.11898      .   S
    N37    O110      2.19165      .   S
    C109   O111      1.06024      .   S
    Zr2    O111      2.15181      .   S
    C109   O112      0.75885      .   S
    Zr11   O112      1.73611  1_554   S
    C113   O114      0.99379      .   S
    Zr10   O114      2.06825  1_554   S
    C113   O115      0.86621      .   S
    Zr18   O115      1.83140  1_554   S
    C113   O116      1.10555      .   S
    N32    O116      2.17631      .   S
    C117   O118      1.11780      .   S
    Zr19   O118      2.25182      .   S
    C117   O119      1.12528      .   S
    N38    O119      6.51363      .   S
    C120   O121      1.11894      .   S
    N28    O121      2.19158      .   S
    C120   O122      0.75889      .   S
    Zr2    O122      1.73614  1_556   S
    C120   O123      1.06017      .   S
    Zr11   O123      2.15168      .   S
    C124   O125      1.10557      .   S
    N34    O125      2.17638      .   S
    C124   O126      0.99379      .   S
    Zr11   O126      2.06824  1_554   S
    C124   O127      0.86622      .   S
    Zr19   O127      1.83141      .   S
    C128   O129      0.99379      .   S
    Zr9    O129      2.06824  1_554   S
    C128   O130      0.86619      .   S
    Zr17   O130      1.83133      .   S
    C128   O131      1.10559      .   S
    N37    O131      2.17643  1_655   S
    C132   O133      1.10556      .   S
    N28    O133      2.17634      .   S
    C132   O134      0.99381      .   S
    Zr0    O134      2.06829  1_556   S
    C132   O135      0.86612      .   S
    Zr16   O135      1.83123      .   S
    C136   O137      1.06024      .   S
    Zr0    O137      2.15180      .   S
    C136   O138      1.11897      .   S
    N34    O138      2.19160      .   S
    C136   O139      0.75885      .   S
    Zr9    O139      1.73610  1_554   S
    C140   O141      1.12528      .   S
    N24    O141      6.51358  1_655   S
    C140   O142      1.11778      .   S
    Zr17   O142      2.25176      .   S
    C143   O144      0.75893      .   S
    Zr0    O144      1.73619  1_556   S
    C143   O145      1.06020      .   S
    Zr9    O145      2.15174      .   S
    C143   O146      1.11890      .   S
    N30    O146      2.19144      .   S
    C147   O148      1.11783      .   S
    Zr16   O148      2.25192  1_554   S
    C147   O149      1.12528      .   S
    N25    O149      6.51356  1_665   S
    C150   O151      0.86616      .   S
    Zr17   O151      1.83133  1_556   S
    C150   O152      1.10551      .   S
    N26    O152      2.17633      .   S
    C150   O153      0.99382      .   S
    Zr1    O153      2.06831  1_556   S
    C154   O155      1.11777      .   S
    Zr17   O155      2.25181  1_556   S
    C154   O156      1.12528      .   S
    N35    O156      6.51348  1_545   S
    C157   O158      1.06015      .   S
    Zr8    O158      2.15161  1_545   S
    C157   O159      0.75893      .   S
    Zr1    O159      1.73619  1_556   S
    C157   O160      1.11897      .   S
    N27    O160      2.19163      .   S
    C161   O162      0.75891      .   S
    Zr8    O162      1.73616  1_554   S
    C161   O163      1.11893      .   S
    N32    O163      2.19158      .   S
    C161   O164      1.06019      .   S
    Zr1    O164      2.15183  1_565   S
    C165   O166      1.12528      .   S
    N29    O166      6.51353      .   S
    C165   O167      1.11773      .   S
    Zr16   O167      2.25169      .   S
    C168   O169      0.86624      .   S
    Zr16   O169      1.83141  1_554   S
    C168   O170      1.10557      .   S
    N36    O170      2.17634  1_655   S
    C168   O171      0.99384      .   S
    Zr8    O171      2.06833  1_554   S
    C172   O173      1.11895      .   S
    N38    O173      2.19161      .   S
    C172   O174      1.06038      .   S
    Zr5    O174      2.15199      .   S
    C172   O175      0.75855      .   S
    Zr12   O175      1.73574      .   S
    C176   O177      0.86649      .   S
    Zr23   O177      1.83165      .   S
    C176   O178      1.10563      .   S
    N33    O178      2.17657      .   S
    C176   O179      0.99331      .   S
    Zr15   O179      2.06746      .   S
    C180   O181      1.12622      .   S
    N37    O181      6.51143      .   S
    C180   O182      1.11721      .   S
    Zr20   O182      2.25115  1_455   S
    C183   O184      1.11732      .   S
    Zr23   O184      2.25125      .   S
    C183   O185      1.12513      .   S
    N28    O185      6.51300      .   S
    C186   O187      0.75851      .   S
    Zr5    O187      1.73568      .   S
    C186   O188      1.11902      .   S
    N39    O188      2.19164      .   S
    C186   O189      1.06039      .   S
    Zr12   O189      2.15200      .   S
    C190   O191      0.86652      .   S
    Zr20   O191      1.83169      .   S
    C190   O192      0.99340      .   S
    Zr12   O192      2.06759      .   S
    C190   O193      1.10566      .   S
    N24    O193      2.17652  1_655   S
    C194   O195      1.12514      .   S
    N32    O195      6.51283  1_545   S
    C194   O196      1.11729      .   S
    Zr23   O196      2.25119      .   S
    C197   O198      1.06035      .   S
    Zr6    O198      2.15191  1_545   S
    C197   O199      1.11900      .   S
    N25    O199      2.19158      .   S
    C197   O200      0.75854      .   S
    Zr15   O200      1.73571      .   S
    C201   O202      0.99336      .   S
    Zr5    O202      2.06755      .   S
    C201   O203      0.86656      .   S
    Zr23   O203      1.83172      .   S
    C201   O204      1.10563      .   S
    N29    O204      2.17648      .   S
    C205   O206      1.06039      .   S
    Zr15   O206      2.15197  1_565   S
    C205   O207      0.75849      .   S
    Zr6    O207      1.73567      .   S
    C205   O208      1.11899      .   S
    N35    O208      2.19158      .   S
    C209   O210      0.86657      .   S
    Zr20   O210      1.83171  1_455   S
    C209   O211      0.99337      .   S
    Zr6    O211      2.06754      .   S
    C209   O212      1.10565      .   S
    N31    O212      2.17651  1_455   S
    C213   O214      1.12511      .   S
    N27    O214      6.51284  1_565   S
    C213   O215      1.11736      .   S
    Zr20   O215      2.25130      .   S
    Zr4    O216      1.70796      .   S
    C77    O216      0.64077      .   S
    Zr3    O217      1.70819      .   S
    C117   O217      0.64083      .   S
    Zr2    O218      1.70820      .   S
    C95    O218      0.64084      .   S
    Zr6    O219      1.70780      .   S
    C180   O219      0.64074      .   S
    Zr5    O220      1.70797      .   S
    C194   O220      0.64077      .   S
    C44    O221      0.64080      .   S
    Zr13   O221      1.70824      .   S
    Zr10   O222      1.70821      .   S
    C106   O222      0.64084      .   S
    Zr8    O223      1.70821      .   S
    C165   O223      0.64084      .   S
    C147   O224      0.64084      .   S
    Zr0    O224      1.70821      .   S
    Zr15   O225      1.70798      .   S
    C183   O225      0.64076      .   S
    Zr12   O226      1.70807      .   S
    C213   O226      0.64078      .   S
    C154   O227      0.64082      .   S
    Zr9    O227      1.70816      .   S
    Zr11   O228      1.70819      .   S
    C84    O228      0.64084      .   S
    Zr14   O229      1.70806      .   S
    C58    O229      0.64084      .   S
    C55    O230      0.64075      .   S
    Zr7    O230      1.70795      .   S
    Zr1    O231      1.70819      .   S
    C140   O231      0.64083      .   S
