# CIF file generated by openbabel 2.4.90, see http://openbabel.sf.net
data_I
_chemical_name_common ''
_cell_length_a 20.297
_cell_length_b 22.807
_cell_length_c 18.089
_cell_angle_alpha 99.858
_cell_angle_beta 89.934
_cell_angle_gamma 116.458
_space_group_name_H-M_alt 'P 1'
_space_group_name_Hall 'P 1'
loop_
    _symmetry_equiv_pos_as_xyz
    x,y,z
loop_
    _atom_site_label
    _atom_site_type_symbol
    _atom_site_fract_x
    _atom_site_fract_y
    _atom_site_fract_z
    _atom_site_occupancy
    Zr0     Zr   0.23007   0.40465   0.97388   1.000
    Zr1     Zr   0.23007   0.90465   0.97388   1.000
    Zr2     Zr   0.73006   0.40465   0.97388   1.000
    Zr3     Zr   0.73007   0.90465   0.97388   1.000
    Zr4     Zr   0.32535   0.09531   0.52608   1.000
    Zr5     Zr   0.32536   0.59532   0.52608   1.000
    Zr6     Zr   0.82535   0.09531   0.52608   1.000
    Zr7     Zr   0.82535   0.59532   0.52608   1.000
    Zr8     Zr   0.26995   0.09537   0.02610   1.000
    Zr9     Zr   0.26996   0.59538   0.02610   1.000
    Zr10    Zr   0.76995   0.09537   0.02610   1.000
    Zr11    Zr   0.76995   0.59537   0.02610   1.000
    Zr12    Zr   0.17466   0.40471   0.47390   1.000
    Zr13    Zr   0.17467   0.90471   0.47390   1.000
    Zr14    Zr   0.67466   0.40471   0.47390   1.000
    Zr15    Zr   0.67466   0.90471   0.47390   1.000
    Zr16    Zr   0.25001   0.25001   0.00000   1.000
    Zr17    Zr   0.25001   0.75001   0.99998   1.000
    Zr18    Zr   0.75001   0.25001   0.00000   1.000
    Zr19    Zr   0.75001   0.75002   0.99999   1.000
    Zr20    Zr   0.00001   0.25001   0.49999   1.000
    Zr21    Zr   0.00000   0.75001   0.49998   1.000
    Zr22    Zr   0.50001   0.25001   0.49999   1.000
    Zr23    Zr   0.50001   0.75001   0.49999   1.000
    Zr24    Zr   0.02117   0.39078   0.54388   1.000
    Zr25    Zr   0.02117   0.89078   0.54387   1.000
    Zr26    Zr   0.52117   0.39078   0.54380   1.000
    Zr27    Zr   0.52117   0.89078   0.54380   1.000
    Zr28    Zr   0.17678   0.29366   0.85803   1.000
    Zr29    Zr   0.17679   0.79367   0.85803   1.000
    Zr30    Zr   0.67678   0.29366   0.85803   1.000
    Zr31    Zr   0.67678   0.79367   0.85803   1.000
    Zr32    Zr   0.31417   0.45329   0.55396   1.000
    Zr33    Zr   0.31417   0.95329   0.55390   1.000
    Zr34    Zr   0.81417   0.45329   0.55396   1.000
    Zr35    Zr   0.81417   0.95329   0.55396   1.000
    Zr36    Zr   0.13044   0.10923   0.95610   1.000
    Zr37    Zr   0.13044   0.60923   0.95615   1.000
    Zr38    Zr   0.63043   0.10922   0.95616   1.000
    Zr39    Zr   0.63044   0.60923   0.95616   1.000
    Zr40    Zr   0.38293   0.20627   0.64194   1.000
    Zr41    Zr   0.38293   0.70628   0.64194   1.000
    Zr42    Zr   0.88292   0.20627   0.64194   1.000
    Zr43    Zr   0.88293   0.70628   0.64193   1.000
    Zr44    Zr   0.36091   0.04671   0.94596   1.000
    Zr45    Zr   0.36092   0.54671   0.94596   1.000
    Zr46    Zr   0.86091   0.04671   0.94590   1.000
    Zr47    Zr   0.86091   0.54671   0.94596   1.000
    Zr48    Zr   0.47884   0.10924   0.45610   1.000
    Zr49    Zr   0.47885   0.60924   0.45610   1.000
    Zr50    Zr   0.97884   0.10924   0.45610   1.000
    Zr51    Zr   0.97884   0.60924   0.45610   1.000
    Zr52    Zr   0.32324   0.20636   0.14195   1.000
    Zr53    Zr   0.32324   0.70636   0.14194   1.000
    Zr54    Zr   0.82323   0.20636   0.14195   1.000
    Zr55    Zr   0.82324   0.70636   0.14195   1.000
    Zr56    Zr   0.18585   0.04674   0.44603   1.000
    Zr57    Zr   0.18585   0.54674   0.44603   1.000
    Zr58    Zr   0.68585   0.04674   0.44603   1.000
    Zr59    Zr   0.68585   0.54674   0.44603   1.000
    Zr60    Zr   0.36958   0.39079   0.04382   1.000
    Zr61    Zr   0.36959   0.89079   0.04382   1.000
    Zr62    Zr   0.86958   0.39079   0.04382   1.000
    Zr63    Zr   0.86958   0.89079   0.04382   1.000
    Zr64    Zr   0.11709   0.29375   0.35804   1.000
    Zr65    Zr   0.11709   0.79375   0.35804   1.000
    Zr66    Zr   0.61709   0.29375   0.35800   1.000
    Zr67    Zr   0.61709   0.79375   0.35804   1.000
    Zr68    Zr   0.13911   0.45332   0.05403   1.000
    Zr69    Zr   0.13912   0.95332   0.05403   1.000
    Zr70    Zr   0.63911   0.45332   0.05400   1.000
    Zr71    Zr   0.63911   0.95332   0.05403   1.000
    Zr72    Zr   0.22415   0.29881   0.91082   1.000
    Zr73    Zr   0.22415   0.79881   0.91082   1.000
    Zr74    Zr   0.72414   0.29881   0.91082   1.000
    Zr75    Zr   0.72415   0.79881   0.91082   1.000
    Zr76    Zr   0.16334   0.34235   0.85634   1.000
    Zr77    Zr   0.16334   0.84236   0.85634   1.000
    Zr78    Zr   0.66333   0.34235   0.85634   1.000
    Zr79    Zr   0.66334   0.84236   0.85634   1.000
    Zr80    Zr   0.27100   0.39384   0.52158   1.000
    Zr81    Zr   0.27100   0.89384   0.52158   1.000
    Zr82    Zr   0.77099   0.39383   0.52158   1.000
    Zr83    Zr   0.77100   0.89384   0.52158   1.000
    Zr84    Zr   0.29193   0.49850   0.56619   1.000
    Zr85    Zr   0.29193   0.99850   0.56619   1.000
    Zr86    Zr   0.79192   0.49849   0.56619   1.000
    Zr87    Zr   0.79193   0.99850   0.56619   1.000
    Zr88    Zr   0.47186   0.33237   0.51283   1.000
    Zr89    Zr   0.47186   0.83237   0.51283   1.000
    Zr90    Zr   0.97186   0.33237   0.51283   1.000
    Zr91    Zr   0.97186   0.83238   0.51283   1.000
    Zr92    Zr   0.08955   0.40745   0.55631   1.000
    Zr93    Zr   0.08955   0.90746   0.55631   1.000
    Zr94    Zr   0.58954   0.40745   0.55631   1.000
    Zr95    Zr   0.58955   0.90745   0.55631   1.000
    Zr96    Zr   0.42526   0.20102   0.58920   1.000
    Zr97    Zr   0.42527   0.70103   0.58920   1.000
    Zr98    Zr   0.92526   0.20102   0.58920   1.000
    Zr99    Zr   0.92526   0.70103   0.58920   1.000
    Zr100   Zr   0.32061   0.15771   0.64355   1.000
    Zr101   Zr   0.32061   0.65772   0.64355   1.000
    Zr102   Zr   0.82060   0.15771   0.64350   1.000
    Zr103   Zr   0.82061   0.65771   0.64355   1.000
    Zr104   Zr   0.37722   0.10618   0.97832   1.000
    Zr105   Zr   0.37722   0.60618   0.97832   1.000
    Zr106   Zr   0.87721   0.10617   0.97832   1.000
    Zr107   Zr   0.87721   0.60618   0.97832   1.000
    Zr108   Zr   0.29344   0.00150   0.93370   1.000
    Zr109   Zr   0.29344   0.50150   0.93375   1.000
    Zr110   Zr   0.79344   0.00150   0.93375   1.000
    Zr111   Zr   0.79344   0.50150   0.93375   1.000
    Zr112   Zr   0.13944   0.16759   0.98720   1.000
    Zr113   Zr   0.13944   0.66760   0.98720   1.000
    Zr114   Zr   0.63943   0.16759   0.98720   1.000
    Zr115   Zr   0.63944   0.66760   0.98720   1.000
    Zr116   Zr   0.18223   0.09264   0.94373   1.000
    Zr117   Zr   0.18223   0.59265   0.94373   1.000
    Zr118   Zr   0.68222   0.09264   0.94373   1.000
    Zr119   Zr   0.68222   0.59265   0.94373   1.000
    Zr120   Zr   0.27586   0.20121   0.08917   1.000
    Zr121   Zr   0.27587   0.70122   0.08916   1.000
    Zr122   Zr   0.77586   0.20121   0.08917   1.000
    Zr123   Zr   0.77587   0.70122   0.08916   1.000
    Zr124   Zr   0.33669   0.15767   0.14363   1.000
    Zr125   Zr   0.33670   0.65767   0.14363   1.000
    Zr126   Zr   0.83669   0.15767   0.14363   1.000
    Zr127   Zr   0.83669   0.65768   0.14363   1.000
    Zr128   Zr   0.22902   0.10619   0.47840   1.000
    Zr129   Zr   0.22902   0.60620   0.47840   1.000
    Zr130   Zr   0.72902   0.10619   0.47840   1.000
    Zr131   Zr   0.72902   0.60620   0.47840   1.000
    Zr132   Zr   0.20809   0.00153   0.43380   1.000
    Zr133   Zr   0.20810   0.50153   0.43380   1.000
    Zr134   Zr   0.70809   0.00153   0.43380   1.000
    Zr135   Zr   0.70809   0.50154   0.43380   1.000
    Zr136   Zr   0.02815   0.16765   0.48715   1.000
    Zr137   Zr   0.02816   0.66765   0.48714   1.000
    Zr138   Zr   0.52815   0.16765   0.48710   1.000
    Zr139   Zr   0.52815   0.66765   0.48714   1.000
    Zr140   Zr   0.41046   0.09256   0.44367   1.000
    Zr141   Zr   0.41047   0.59256   0.44367   1.000
    Zr142   Zr   0.91046   0.09256   0.44367   1.000
    Zr143   Zr   0.91046   0.59256   0.44367   1.000
    Zr144   Zr   0.07476   0.29900   0.41078   1.000
    Zr145   Zr   0.07476   0.79900   0.41070   1.000
    Zr146   Zr   0.57476   0.29900   0.41078   1.000
    Zr147   Zr   0.57476   0.79900   0.41078   1.000
    Zr148   Zr   0.17941   0.34231   0.35640   1.000
    Zr149   Zr   0.17942   0.84231   0.35642   1.000
    Zr150   Zr   0.67941   0.34231   0.35642   1.000
    Zr151   Zr   0.67941   0.84231   0.35642   1.000
    Zr152   Zr   0.12282   0.39386   0.02166   1.000
    Zr153   Zr   0.12282   0.89386   0.02166   1.000
    Zr154   Zr   0.62281   0.39386   0.02166   1.000
    Zr155   Zr   0.62281   0.89386   0.02166   1.000
    Zr156   Zr   0.20658   0.49853   0.06625   1.000
    Zr157   Zr   0.20659   0.99854   0.06625   1.000
    Zr158   Zr   0.70658   0.49853   0.06625   1.000
    Zr159   Zr   0.70658   0.99853   0.06620   1.000
    Zr160   Zr   0.36059   0.33242   0.01277   1.000
    Zr161   Zr   0.36060   0.83242   0.01277   1.000
    Zr162   Zr   0.86059   0.33242   0.01277   1.000
    Zr163   Zr   0.86059   0.83242   0.01277   1.000
    Zr164   Zr   0.31779   0.40736   0.05625   1.000
    Zr165   Zr   0.31780   0.90737   0.05625   1.000
    Zr166   Zr   0.81779   0.40736   0.05625   1.000
    Zr167   Zr   0.81779   0.90736   0.05625   1.000
    O168    O    0.36509   0.86161   0.02829   1.000
    O169    O    0.30530   0.79122   0.00638   1.000
    O170    O    0.86508   0.36160   0.02829   1.000
    O171    O    0.80530   0.29122   0.00639   1.000
    O172    O    0.86509   0.86161   0.02829   1.000
    O173    O    0.80530   0.79122   0.00638   1.000
    O174    O    0.36509   0.36160   0.02829   1.000
    O175    O    0.30530   0.29122   0.00639   1.000
    O176    O    0.13096   0.42359   0.03785   1.000
    O177    O    0.17644   0.39925   0.99777   1.000
    O178    O    0.13097   0.92359   0.03785   1.000
    O179    O    0.17645   0.89926   0.99777   1.000
    O180    O    0.63096   0.42359   0.03783   1.000
    O181    O    0.67644   0.39925   0.99777   1.000
    O182    O    0.63096   0.92359   0.03785   1.000
    O183    O    0.67644   0.89926   0.99777   1.000
    O184    O    0.73827   0.04695   0.04615   1.000
    O185    O    0.80332   0.12652   0.08486   1.000
    O186    O    0.72609   0.09401   0.98491   1.000
    O187    O    0.82358   0.10077   0.00221   1.000
    O188    O    0.73827   0.54695   0.04617   1.000
    O189    O    0.80332   0.62653   0.08486   1.000
    O190    O    0.72609   0.59401   0.98491   1.000
    O191    O    0.82358   0.60078   0.00221   1.000
    O192    O    0.23827   0.54695   0.04617   1.000
    O193    O    0.30333   0.62653   0.08486   1.000
    O194    O    0.22609   0.59401   0.98491   1.000
    O195    O    0.32359   0.60078   0.00221   1.000
    O196    O    0.23827   0.04695   0.04617   1.000
    O197    O    0.30333   0.12652   0.08486   1.000
    O198    O    0.22609   0.09401   0.98491   1.000
    O199    O    0.32358   0.10077   0.00221   1.000
    O200    O    0.84369   0.89908   0.05003   1.000
    O201    O    0.34369   0.39907   0.05003   1.000
    O202    O    0.34369   0.89908   0.05003   1.000
    O203    O    0.84368   0.39907   0.05003   1.000
    O204    O    0.67284   0.47593   0.06012   1.000
    O205    O    0.17285   0.47593   0.06014   1.000
    O206    O    0.17285   0.97593   0.06014   1.000
    O207    O    0.67285   0.97593   0.06011   1.000
    O208    O    0.27393   0.40600   0.01506   1.000
    O209    O    0.27393   0.90601   0.01506   1.000
    O210    O    0.77393   0.40600   0.01506   1.000
    O211    O    0.77393   0.90601   0.01506   1.000
    O212    O    0.79955   0.70379   0.11555   1.000
    O213    O    0.76294   0.72562   0.04458   1.000
    O214    O    0.29956   0.70379   0.11555   1.000
    O215    O    0.26294   0.72561   0.04457   1.000
    O216    O    0.29955   0.20378   0.11556   1.000
    O217    O    0.26294   0.22561   0.04459   1.000
    O218    O    0.79955   0.20378   0.11556   1.000
    O219    O    0.76294   0.22561   0.04459   1.000
    O220    O    0.32997   0.68202   0.14279   1.000
    O221    O    0.82997   0.68202   0.14279   1.000
    O222    O    0.32997   0.18202   0.14279   1.000
    O223    O    0.82996   0.18201   0.14279   1.000
    O224    O    0.14825   0.31803   0.35722   1.000
    O225    O    0.17704   0.37351   0.41515   1.000
    O226    O    0.64825   0.31803   0.35721   1.000
    O227    O    0.67703   0.37351   0.41516   1.000
    O228    O    0.14826   0.81803   0.35723   1.000
    O229    O    0.17704   0.87351   0.41516   1.000
    O230    O    0.64825   0.81803   0.35723   1.000
    O231    O    0.67704   0.87351   0.41516   1.000
    O232    O    0.59592   0.29637   0.38439   1.000
    O233    O    0.09592   0.29637   0.38441   1.000
    O234    O    0.09593   0.79638   0.38437   1.000
    O235    O    0.59592   0.79638   0.38441   1.000
    O236    O    0.03738   0.77451   0.45534   1.000
    O237    O    0.03738   0.27450   0.45539   1.000
    O238    O    0.53738   0.27451   0.45539   1.000
    O239    O    0.53738   0.77451   0.45539   1.000
    O240    O    0.69697   0.52414   0.43991   1.000
    O241    O    0.69138   0.45312   0.45385   1.000
    O242    O    0.69697   0.02414   0.43991   1.000
    O243    O    0.69138   0.95312   0.45385   1.000
    O244    O    0.19697   0.52414   0.43991   1.000
    O245    O    0.19138   0.45312   0.45385   1.000
    O246    O    0.19697   0.02414   0.43991   1.000
    O247    O    0.19138   0.95312   0.45385   1.000
    O248    O    0.44466   0.60090   0.44989   1.000
    O249    O    0.36791   0.59394   0.48488   1.000
    O250    O    0.94465   0.10090   0.44989   1.000
    O251    O    0.86790   0.09394   0.48488   1.000
    O252    O    0.94465   0.60090   0.44989   1.000
    O253    O    0.86791   0.59394   0.48488   1.000
    O254    O    0.44465   0.10090   0.44989   1.000
    O255    O    0.36791   0.09394   0.48488   1.000
    O256    O    0.20743   0.07647   0.46221   1.000
    O257    O    0.20744   0.57647   0.46221   1.000
    O258    O    0.70743   0.07647   0.46221   1.000
    O259    O    0.70743   0.57647   0.46221   1.000
    O260    O    0.50349   0.13844   0.47160   1.000
    O261    O    0.50350   0.63845   0.47162   1.000
    O262    O    0.00349   0.13844   0.47163   1.000
    O263    O    0.00350   0.63845   0.47162   1.000
    O264    O    0.22283   0.39927   0.49774   1.000
    O265    O    0.13211   0.40608   0.51511   1.000
    O266    O    0.72283   0.89927   0.49774   1.000
    O267    O    0.63211   0.90608   0.51511   1.000
    O268    O    0.72283   0.39927   0.49774   1.000
    O269    O    0.63210   0.40608   0.51511   1.000
    O270    O    0.22284   0.89927   0.49774   1.000
    O271    O    0.13211   0.90608   0.51511   1.000
    O272    O    0.77719   0.60076   0.50224   1.000
    O273    O    0.77718   0.10075   0.50224   1.000
    O274    O    0.27719   0.60076   0.50224   1.000
    O275    O    0.27719   0.10075   0.50224   1.000
    O276    O    0.51408   0.20883   0.49354   1.000
    O277    O    0.01408   0.70883   0.49356   1.000
    O278    O    0.51408   0.70883   0.49356   1.000
    O279    O    0.01408   0.20883   0.49357   1.000
    O280    O    0.98593   0.79120   0.50640   1.000
    O281    O    0.96263   0.72552   0.54459   1.000
    O282    O    0.48594   0.79119   0.50641   1.000
    O283    O    0.46264   0.72552   0.54459   1.000
    O284    O    0.48593   0.29119   0.50641   1.000
    O285    O    0.46263   0.22552   0.54459   1.000
    O286    O    0.98593   0.29119   0.50641   1.000
    O287    O    0.96263   0.22552   0.54459   1.000
    O288    O    0.99651   0.36157   0.52836   1.000
    O289    O    0.49651   0.36158   0.52831   1.000
    O290    O    0.49652   0.86158   0.52831   1.000
    O291    O    0.99652   0.86158   0.52835   1.000
    O292    O    0.29259   0.42356   0.53777   1.000
    O293    O    0.79258   0.42356   0.53777   1.000
    O294    O    0.79258   0.92356   0.53777   1.000
    O295    O    0.29259   0.92356   0.53774   1.000
    O296    O    0.30864   0.04691   0.54613   1.000
    O297    O    0.32298   0.12651   0.58481   1.000
    O298    O    0.80864   0.54691   0.54613   1.000
    O299    O    0.82298   0.62652   0.58481   1.000
    O300    O    0.80864   0.04690   0.54613   1.000
    O301    O    0.82297   0.12651   0.58479   1.000
    O302    O    0.30864   0.54691   0.54613   1.000
    O303    O    0.32298   0.62652   0.58481   1.000
    O304    O    0.55536   0.39911   0.55005   1.000
    O305    O    0.55536   0.89912   0.55005   1.000
    O306    O    0.05536   0.89912   0.55009   1.000
    O307    O    0.05536   0.39911   0.55010   1.000
    O308    O    0.30305   0.97589   0.56005   1.000
    O309    O    0.80305   0.97589   0.56007   1.000
    O310    O    0.80304   0.47589   0.56007   1.000
    O311    O    0.30305   0.47589   0.56007   1.000
    O312    O    0.90410   0.70365   0.61557   1.000
    O313    O    0.40410   0.20365   0.61557   1.000
    O314    O    0.90409   0.20365   0.61557   1.000
    O315    O    0.40410   0.70365   0.61557   1.000
    O316    O    0.85177   0.68200   0.64274   1.000
    O317    O    0.35177   0.18199   0.64274   1.000
    O318    O    0.35177   0.68200   0.64274   1.000
    O319    O    0.85176   0.18199   0.64272   1.000
    O320    O    0.17006   0.31801   0.85718   1.000
    O321    O    0.19670   0.37350   0.91511   1.000
    O322    O    0.17006   0.81801   0.85718   1.000
    O323    O    0.19671   0.87351   0.91511   1.000
    O324    O    0.67006   0.31801   0.85718   1.000
    O325    O    0.69670   0.37350   0.91511   1.000
    O326    O    0.67006   0.81801   0.85718   1.000
    O327    O    0.69670   0.87351   0.91511   1.000
    O328    O    0.20047   0.29623   0.88442   1.000
    O329    O    0.20047   0.79624   0.88442   1.000
    O330    O    0.70046   0.29623   0.88442   1.000
    O331    O    0.70047   0.79624   0.88442   1.000
    O332    O    0.23708   0.27441   0.95541   1.000
    O333    O    0.73708   0.77441   0.95540   1.000
    O334    O    0.73708   0.27441   0.95541   1.000
    O335    O    0.23708   0.77441   0.95540   1.000
    O336    O    0.32718   0.02411   0.93983   1.000
    O337    O    0.26176   0.95308   0.95379   1.000
    O338    O    0.32718   0.52411   0.93986   1.000
    O339    O    0.26176   0.45308   0.95381   1.000
    O340    O    0.82718   0.52411   0.93986   1.000
    O341    O    0.76175   0.45307   0.95381   1.000
    O342    O    0.82717   0.02410   0.93982   1.000
    O343    O    0.76175   0.95308   0.95381   1.000
    O344    O    0.65633   0.60094   0.94995   1.000
    O345    O    0.65633   0.10093   0.94995   1.000
    O346    O    0.15634   0.60094   0.94994   1.000
    O347    O    0.15633   0.10094   0.94992   1.000
    O348    O    0.86906   0.07644   0.96211   1.000
    O349    O    0.86906   0.57645   0.96214   1.000
    O350    O    0.36907   0.57645   0.96214   1.000
    O351    O    0.36906   0.07644   0.96214   1.000
    O352    O    0.13494   0.13841   0.97165   1.000
    O353    O    0.13494   0.63841   0.97167   1.000
    O354    O    0.63493   0.13841   0.97168   1.000
    O355    O    0.63494   0.63841   0.97168   1.000
    O356    O    0.19472   0.20880   0.99360   1.000
    O357    O    0.19473   0.70880   0.99359   1.000
    O358    O    0.69472   0.20880   0.99360   1.000
    O359    O    0.69472   0.70881   0.99360   1.000
    O360    O    0.22711   0.35173   0.94235   1.000
    O361    O    0.22711   0.85173   0.94235   1.000
    O362    O    0.72710   0.35173   0.94235   1.000
    O363    O    0.72711   0.85173   0.94235   1.000
    O364    O    0.37531   0.14817   0.55764   1.000
    O365    O    0.37531   0.64817   0.55764   1.000
    O366    O    0.87530   0.14817   0.55764   1.000
    O367    O    0.87531   0.64817   0.55764   1.000
    O368    O    0.27291   0.14829   0.05763   1.000
    O369    O    0.27291   0.64830   0.05763   1.000
    O370    O    0.77291   0.14829   0.05763   1.000
    O371    O    0.77291   0.64829   0.05763   1.000
    O372    O    0.12471   0.35185   0.44234   1.000
    O373    O    0.12472   0.85186   0.44230   1.000
    O374    O    0.62471   0.35185   0.44234   1.000
    O375    O    0.62471   0.85186   0.44234   1.000
    N376    N    0.96554   0.48583   0.59666   1.000
    O377    O    0.98635   0.45082   0.57678   1.000
    O378    O    0.90934   0.47375   0.58106   1.000
    O379    O    0.12912   0.71750   0.78829   1.000
    N380    N    0.96554   0.98583   0.59665   1.000
    O381    O    0.98635   0.95082   0.57678   1.000
    O382    O    0.90934   0.97375   0.58106   1.000
    O383    O    0.12912   0.21749   0.78829   1.000
    N384    N    0.52024   0.98588   0.09665   1.000
    O385    O    0.46443   0.95087   0.07673   1.000
    O386    O    0.56437   0.97379   0.08109   1.000
    O387    O    0.58845   0.21759   0.28826   1.000
    N388    N    0.02023   0.98588   0.09665   1.000
    O389    O    0.96442   0.95087   0.07675   1.000
    O390    O    0.06437   0.97379   0.08109   1.000
    O391    O    0.08845   0.21759   0.28826   1.000
    N392    N    0.52024   0.48588   0.09665   1.000
    O393    O    0.46443   0.45086   0.07675   1.000
    O394    O    0.56436   0.47379   0.08108   1.000
    O395    O    0.58846   0.71759   0.28826   1.000
    N396    N    0.53448   0.51419   0.40332   1.000
    O397    O    0.59068   0.52628   0.41892   1.000
    O398    O    0.51367   0.54921   0.42320   1.000
    O399    O    0.37090   0.28253   0.21169   1.000
    N400    N    0.02024   0.48588   0.09659   1.000
    O401    O    0.06437   0.47379   0.08106   1.000
    O402    O    0.96442   0.45086   0.07672   1.000
    O403    O    0.08846   0.71759   0.28826   1.000
    N404    N    0.03448   0.01419   0.40332   1.000
    O405    O    0.01367   0.04920   0.42320   1.000
    O406    O    0.09068   0.02628   0.41892   1.000
    O407    O    0.87091   0.78253   0.21168   1.000
    N408    N    0.47978   0.01414   0.90332   1.000
    O409    O    0.53559   0.04915   0.92322   1.000
    O410    O    0.43565   0.02624   0.91889   1.000
    O411    O    0.41156   0.78244   0.71171   1.000
    N412    N    0.46554   0.98583   0.59665   1.000
    O413    O    0.48635   0.95082   0.57675   1.000
    O414    O    0.40934   0.97375   0.58104   1.000
    O415    O    0.62911   0.21749   0.78829   1.000
    N416    N    0.47978   0.51414   0.90332   1.000
    O417    O    0.43566   0.52624   0.91889   1.000
    O418    O    0.53559   0.54916   0.92322   1.000
    O419    O    0.41156   0.28243   0.71171   1.000
    N420    N    0.53448   0.01420   0.40332   1.000
    O421    O    0.51367   0.04920   0.42320   1.000
    O422    O    0.59067   0.02628   0.41892   1.000
    O423    O    0.37091   0.78253   0.21168   1.000
    N424    N    0.97978   0.01414   0.90331   1.000
    O425    O    0.03559   0.04916   0.92320   1.000
    O426    O    0.93565   0.02624   0.91887   1.000
    O427    O    0.91067   0.78244   0.71171   1.000
    N428    N    0.97978   0.51414   0.90332   1.000
    O429    O    0.03560   0.54916   0.92322   1.000
    O430    O    0.93565   0.52624   0.91889   1.000
    O431    O    0.91066   0.28243   0.71171   1.000
    N432    N    0.46554   0.48583   0.59665   1.000
    O433    O    0.40934   0.47375   0.58104   1.000
    O434    O    0.48635   0.45082   0.57676   1.000
    O435    O    0.62912   0.71750   0.78829   1.000
    N436    N    0.03448   0.51419   0.40332   1.000
    O437    O    0.09068   0.52628   0.41892   1.000
    O438    O    0.01367   0.54920   0.42320   1.000
    O439    O    0.87090   0.28253   0.21168   1.000
loop_
    _geom_bond_atom_site_label_1
    _geom_bond_atom_site_label_2
    _geom_bond_distance
    _geom_bond_site_symmetry_2
    _ccdc_geom_bond_type
    Zr161  O168      0.64198      .   S
    Zr61   O168      0.64198      .   S
    Zr161  O169      1.08596      .   S
    Zr17   O169      1.08596  1_556   S
    Zr162  O170      0.64199      .   S
    Zr62   O170      0.64199      .   S
    Zr162  O171      1.08591      .   S
    Zr18   O171      1.08591      .   S
    Zr163  O172      0.64199      .   S
    Zr63   O172      0.64199      .   S
    Zr163  O173      1.08590      .   S
    Zr19   O173      1.08590  1_556   S
    Zr160  O174      0.64200      .   S
    Zr60   O174      0.64200      .   S
    Zr160  O175      1.08590      .   S
    Zr16   O175      1.08590      .   S
    Zr152  O176      0.63642      .   S
    Zr68   O176      0.63642      .   S
    Zr152  O177      1.13332  1_554   S
    Zr0    O177      1.13332      .   S
    Zr153  O178      0.63643      .   S
    Zr69   O178      0.63643      .   S
    Zr153  O179      1.13332  1_554   S
    Zr1    O179      1.13332      .   S
    Zr154  O180      0.63637      .   S
    Zr70   O180      0.63637      .   S
    Zr154  O181      1.13332  1_554   S
    Zr2    O181      1.13332      .   S
    Zr155  O182      0.63641      .   S
    Zr71   O182      0.63641      .   S
    Zr155  O183      1.13333  1_554   S
    Zr3    O183      1.13333      .   S
    Zr10   O184      1.12620      .   S
    Zr159  O184      1.12620  1_565   S
    Zr10   O185      1.18648      .   S
    Zr126  O185      1.18648      .   S
    Zr10   O186      1.14786  1_554   S
    Zr118  O186      1.14786      .   S
    Zr10   O187      1.13334      .   S
    Zr106  O187      1.13334  1_556   S
    Zr11   O188      1.12647      .   S
    Zr158  O188      1.12647      .   S
    Zr11   O189      1.18648      .   S
    Zr127  O189      1.18648      .   S
    Zr11   O190      1.14786  1_554   S
    Zr119  O190      1.14786      .   S
    Zr11   O191      1.13335      .   S
    Zr107  O191      1.13335  1_556   S
    Zr9    O192      1.12648      .   S
    Zr156  O192      1.12648      .   S
    Zr9    O193      1.18647      .   S
    Zr125  O193      1.18647      .   S
    Zr9    O194      1.14785  1_554   S
    Zr117  O194      1.14785      .   S
    Zr9    O195      1.13334      .   S
    Zr105  O195      1.13334  1_556   S
    Zr8    O196      1.12640      .   S
    Zr157  O196      1.12640  1_565   S
    Zr8    O197      1.18648      .   S
    Zr124  O197      1.18648      .   S
    Zr8    O198      1.14786  1_554   S
    Zr116  O198      1.14786      .   S
    Zr8    O199      1.13334      .   S
    Zr104  O199      1.13334  1_556   S
    Zr63   O200      0.63696      .   S
    Zr167  O200      0.63696      .   S
    Zr60   O201      0.63694      .   S
    Zr164  O201      0.63694      .   S
    Zr61   O202      0.63697      .   S
    Zr165  O202      0.63697      .   S
    Zr62   O203      0.63695      .   S
    Zr166  O203      0.63695      .   S
    Zr70   O204      0.64265      .   S
    Zr158  O204      0.64265      .   S
    Zr68   O205      0.64265      .   S
    Zr156  O205      0.64265      .   S
    Zr69   O206      0.64264      .   S
    Zr157  O206      0.64264      .   S
    Zr71   O207      0.64263      .   S
    Zr159  O207      0.64263      .   S
    Zr164  O208      1.14788      .   S
    Zr0    O208      1.14788  1_556   S
    Zr165  O209      1.14788      .   S
    Zr1    O209      1.14788  1_556   S
    Zr166  O210      1.14788      .   S
    Zr2    O210      1.14788  1_556   S
    Zr167  O211      1.14787      .   S
    Zr3    O211      1.14787  1_556   S
    Zr123  O212      0.65445      .   S
    Zr55   O212      0.65445      .   S
    Zr123  O213      1.14597      .   S
    Zr19   O213      1.14597  1_556   S
    Zr121  O214      0.65439      .   S
    Zr53   O214      0.65439      .   S
    Zr121  O215      1.14602      .   S
    Zr17   O215      1.14602  1_556   S
    Zr120  O216      0.65440      .   S
    Zr52   O216      0.65440      .   S
    Zr120  O217      1.14596      .   S
    Zr16   O217      1.14596      .   S
    Zr122  O218      0.65437      .   S
    Zr54   O218      0.65437      .   S
    Zr122  O219      1.14596      .   S
    Zr18   O219      1.14596      .   S
    Zr53   O220      0.63058      .   S
    Zr125  O220      0.63058      .   S
    Zr55   O221      0.63056      .   S
    Zr127  O221      0.63056      .   S
    Zr52   O222      0.63056      .   S
    Zr124  O222      0.63056      .   S
    Zr54   O223      0.63058      .   S
    Zr126  O223      0.63058      .   S
    Zr148  O224      0.63056      .   S
    Zr64   O224      0.63056      .   S
    Zr148  O225      1.18722      .   S
    Zr12   O225      1.18722      .   S
    Zr150  O226      0.63046      .   S
    Zr66   O226      0.63046      .   S
    Zr150  O227      1.18708      .   S
    Zr14   O227      1.18708      .   S
    Zr149  O228      0.63054      .   S
    Zr65   O228      0.63054      .   S
    Zr149  O229      1.18709      .   S
    Zr13   O229      1.18709      .   S
    Zr151  O230      0.63053      .   S
    Zr67   O230      0.63053      .   S
    Zr151  O231      1.18709      .   S
    Zr15   O231      1.18709      .   S
    Zr66   O232      0.65476      .   S
    Zr146  O232      0.65476      .   S
    Zr64   O233      0.65447      .   S
    Zr144  O233      0.65447      .   S
    Zr65   O234      0.65397      .   S
    Zr145  O234      0.65397      .   S
    Zr67   O235      0.65448      .   S
    Zr147  O235      0.65448      .   S
    Zr145  O236      1.14681      .   S
    Zr21   O236      1.14681      .   S
    Zr144  O237      1.14624      .   S
    Zr20   O237      1.14624      .   S
    Zr146  O238      1.14625      .   S
    Zr22   O238      1.14625      .   S
    Zr147  O239      1.14624      .   S
    Zr23   O239      1.14624      .   S
    Zr135  O240      0.64270      .   S
    Zr59   O240      0.64270      .   S
    Zr135  O241      1.12646      .   S
    Zr14   O241      1.12646      .   S
    Zr134  O242      0.64271      .   S
    Zr58   O242      0.64271      .   S
    Zr134  O243      1.12640  1_545   S
    Zr15   O243      1.12640      .   S
    Zr133  O244      0.64270      .   S
    Zr57   O244      0.64270      .   S
    Zr133  O245      1.12643      .   S
    Zr12   O245      1.12643      .   S
    Zr132  O246      0.64271      .   S
    Zr56   O246      0.64271      .   S
    Zr132  O247      1.12639  1_545   S
    Zr13   O247      1.12639      .   S
    Zr141  O248      0.63690      .   S
    Zr49   O248      0.63690      .   S
    Zr141  O249      1.14773      .   S
    Zr5    O249      1.14773      .   S
    Zr142  O250      0.63689      .   S
    Zr50   O250      0.63689      .   S
    Zr142  O251      1.14772      .   S
    Zr6    O251      1.14772      .   S
    Zr143  O252      0.63689      .   S
    Zr51   O252      0.63689      .   S
    Zr143  O253      1.14772      .   S
    Zr7    O253      1.14772      .   S
    Zr140  O254      0.63689      .   S
    Zr48   O254      0.63689      .   S
    Zr140  O255      1.14773      .   S
    Zr4    O255      1.14773      .   S
    Zr56   O256      0.63638      .   S
    Zr128  O256      0.63638      .   S
    Zr57   O257      0.63639      .   S
    Zr129  O257      0.63639      .   S
    Zr58   O258      0.63637      .   S
    Zr130  O258      0.63637      .   S
    Zr59   O259      0.63637      .   S
    Zr131  O259      0.63637      .   S
    Zr48   O260      0.64186      .   S
    Zr138  O260      0.64186      .   S
    Zr49   O261      0.64197      .   S
    Zr139  O261      0.64197      .   S
    Zr50   O262      0.64203  1_655   S
    Zr136  O262      0.64203      .   S
    Zr51   O263      0.64201  1_655   S
    Zr137  O263      0.64201      .   S
    Zr12   O264      1.13333      .   S
    Zr80   O264      1.13333      .   S
    Zr12   O265      1.14773      .   S
    Zr92   O265      1.14773      .   S
    Zr15   O266      1.13333      .   S
    Zr83   O266      1.13333      .   S
    Zr15   O267      1.14775      .   S
    Zr95   O267      1.14775      .   S
    Zr14   O268      1.13332      .   S
    Zr82   O268      1.13332      .   S
    Zr14   O269      1.14774      .   S
    Zr94   O269      1.14774      .   S
    Zr13   O270      1.13333      .   S
    Zr81   O270      1.13333      .   S
    Zr13   O271      1.14774      .   S
    Zr93   O271      1.14774      .   S
    Zr131  O272      1.13333      .   S
    Zr7    O272      1.13333      .   S
    Zr130  O273      1.13334      .   S
    Zr6    O273      1.13334      .   S
    Zr129  O274      1.13333      .   S
    Zr5    O274      1.13333      .   S
    Zr128  O275      1.13334      .   S
    Zr4    O275      1.13334      .   S
    Zr138  O276      1.08571      .   S
    Zr22   O276      1.08571      .   S
    Zr137  O277      1.08583      .   S
    Zr21   O277      1.08583      .   S
    Zr139  O278      1.08572      .   S
    Zr23   O278      1.08572      .   S
    Zr136  O279      1.08573      .   S
    Zr20   O279      1.08573      .   S
    Zr21   O280      1.08567  1_455   S
    Zr91   O280      1.08567      .   S
    Zr21   O281      1.14626  1_455   S
    Zr99   O281      1.14626      .   S
    Zr23   O282      1.08573      .   S
    Zr89   O282      1.08573      .   S
    Zr23   O283      1.14621      .   S
    Zr97   O283      1.14621      .   S
    Zr22   O284      1.08574      .   S
    Zr88   O284      1.08574      .   S
    Zr22   O285      1.14622      .   S
    Zr96   O285      1.14622      .   S
    Zr20   O286      1.08578  1_455   S
    Zr90   O286      1.08578      .   S
    Zr20   O287      1.14625  1_455   S
    Zr98   O287      1.14625      .   S
    Zr90   O288      0.64201      .   S
    Zr24   O288      0.64201  1_455   S
    Zr88   O289      0.64180      .   S
    Zr26   O289      0.64180      .   S
    Zr89   O290      0.64179      .   S
    Zr27   O290      0.64179      .   S
    Zr91   O291      0.64198      .   S
    Zr25   O291      0.64198  1_455   S
    Zr80   O292      0.63639      .   S
    Zr32   O292      0.63639      .   S
    Zr82   O293      0.63639      .   S
    Zr34   O293      0.63639      .   S
    Zr83   O294      0.63639      .   S
    Zr35   O294      0.63639      .   S
    Zr81   O295      0.63624      .   S
    Zr33   O295      0.63624      .   S
    Zr4    O296      1.12639      .   S
    Zr85   O296      1.12639  1_565   S
    Zr4    O297      1.18701      .   S
    Zr100  O297      1.18701      .   S
    Zr7    O298      1.12645      .   S
    Zr86   O298      1.12645      .   S
    Zr7    O299      1.18699      .   S
    Zr103  O299      1.18699      .   S
    Zr6    O300      1.12639      .   S
    Zr87   O300      1.12639  1_565   S
    Zr6    O301      1.18665      .   S
    Zr102  O301      1.18665      .   S
    Zr5    O302      1.12644      .   S
    Zr84   O302      1.12644      .   S
    Zr5    O303      1.18701      .   S
    Zr101  O303      1.18701      .   S
    Zr26   O304      0.63699      .   S
    Zr94   O304      0.63699      .   S
    Zr27   O305      0.63699      .   S
    Zr95   O305      0.63699      .   S
    Zr25   O306      0.63690      .   S
    Zr93   O306      0.63690      .   S
    Zr24   O307      0.63690      .   S
    Zr92   O307      0.63690      .   S
    Zr33   O308      0.64271      .   S
    Zr85   O308      0.64271      .   S
    Zr35   O309      0.64270      .   S
    Zr87   O309      0.64270      .   S
    Zr34   O310      0.64270      .   S
    Zr86   O310      0.64270      .   S
    Zr32   O311      0.64270      .   S
    Zr84   O311      0.64270      .   S
    Zr99   O312      0.65442      .   S
    Zr43   O312      0.65442      .   S
    Zr96   O313      0.65448      .   S
    Zr40   O313      0.65448      .   S
    Zr98   O314      0.65450      .   S
    Zr42   O314      0.65450      .   S
    Zr97   O315      0.65449      .   S
    Zr41   O315      0.65449      .   S
    Zr43   O316      0.63053      .   S
    Zr103  O316      0.63053      .   S
    Zr40   O317      0.63053      .   S
    Zr100  O317      0.63053      .   S
    Zr41   O318      0.63052      .   S
    Zr101  O318      0.63052      .   S
    Zr42   O319      0.63045      .   S
    Zr102  O319      0.63045      .   S
    Zr76   O320      0.63056      .   S
    Zr28   O320      0.63056      .   S
    Zr76   O321      1.18652      .   S
    Zr0    O321      1.18652      .   S
    Zr77   O322      0.63057      .   S
    Zr29   O322      0.63057      .   S
    Zr77   O323      1.18652      .   S
    Zr1    O323      1.18652      .   S
    Zr78   O324      0.63057      .   S
    Zr30   O324      0.63057      .   S
    Zr78   O325      1.18652      .   S
    Zr2    O325      1.18652      .   S
    Zr79   O326      0.63058      .   S
    Zr31   O326      0.63058      .   S
    Zr79   O327      1.18652      .   S
    Zr3    O327      1.18652      .   S
    Zr28   O328      0.65441      .   S
    Zr72   O328      0.65441      .   S
    Zr29   O329      0.65442      .   S
    Zr73   O329      0.65442      .   S
    Zr30   O330      0.65441      .   S
    Zr74   O330      0.65441      .   S
    Zr31   O331      0.65441      .   S
    Zr75   O331      0.65441      .   S
    Zr72   O332      1.14606      .   S
    Zr16   O332      1.14606  1_554   S
    Zr75   O333      1.14599      .   S
    Zr19   O333      1.14599      .   S
    Zr74   O334      1.14607      .   S
    Zr18   O334      1.14607  1_554   S
    Zr73   O335      1.14596      .   S
    Zr17   O335      1.14596      .   S
    Zr108  O336      0.64267      .   S
    Zr44   O336      0.64267      .   S
    Zr108  O337      1.12664  1_545   S
    Zr1    O337      1.12664      .   S
    Zr109  O338      0.64265      .   S
    Zr45   O338      0.64265      .   S
    Zr109  O339      1.12648      .   S
    Zr0    O339      1.12648      .   S
    Zr111  O340      0.64265      .   S
    Zr47   O340      0.64265      .   S
    Zr111  O341      1.12648      .   S
    Zr2    O341      1.12648      .   S
    Zr110  O342      0.64263      .   S
    Zr46   O342      0.64263      .   S
    Zr110  O343      1.12641  1_545   S
    Zr3    O343      1.12641      .   S
    Zr119  O344      0.63695      .   S
    Zr39   O344      0.63695      .   S
    Zr118  O345      0.63695      .   S
    Zr38   O345      0.63695      .   S
    Zr117  O346      0.63696      .   S
    Zr37   O346      0.63696      .   S
    Zr116  O347      0.63689      .   S
    Zr36   O347      0.63689      .   S
    Zr46   O348      0.63656      .   S
    Zr106  O348      0.63656      .   S
    Zr47   O349      0.63642      .   S
    Zr107  O349      0.63642      .   S
    Zr45   O350      0.63643      .   S
    Zr105  O350      0.63643      .   S
    Zr44   O351      0.63643      .   S
    Zr104  O351      0.63643      .   S
    Zr36   O352      0.64212      .   S
    Zr112  O352      0.64212      .   S
    Zr37   O353      0.64199      .   S
    Zr113  O353      0.64199      .   S
    Zr38   O354      0.64198      .   S
    Zr114  O354      0.64198      .   S
    Zr39   O355      0.64198      .   S
    Zr115  O355      0.64198      .   S
    Zr112  O356      1.08595      .   S
    Zr16   O356      1.08595  1_554   S
    Zr113  O357      1.08591      .   S
    Zr17   O357      1.08591      .   S
    Zr114  O358      1.08595      .   S
    Zr18   O358      1.08595  1_554   S
    Zr115  O359      1.08595      .   S
    Zr19   O359      1.08595      .   S
    Zr72   O360      1.21877      .   S
    Zr0    O360      1.21877      .   S
    Zr73   O361      1.21875      .   S
    Zr1    O361      1.21875      .   S
    Zr74   O362      1.21877      .   S
    Zr2    O362      1.21877      .   S
    Zr75   O363      1.21876      .   S
    Zr3    O363      1.21876      .   S
    Zr96   O364      1.21806      .   S
    Zr4    O364      1.21806      .   S
    Zr97   O365      1.21807      .   S
    Zr5    O365      1.21807      .   S
    Zr98   O366      1.21805      .   S
    Zr6    O366      1.21805      .   S
    Zr99   O367      1.21807      .   S
    Zr7    O367      1.21807      .   S
    Zr120  O368      1.21881      .   S
    Zr8    O368      1.21881      .   S
    Zr121  O369      1.21879      .   S
    Zr9    O369      1.21879      .   S
    Zr122  O370      1.21881      .   S
    Zr10   O370      1.21881      .   S
    Zr123  O371      1.21879      .   S
    Zr11   O371      1.21879      .   S
    Zr144  O372      1.21804      .   S
    Zr12   O372      1.21804      .   S
    Zr145  O373      1.21824      .   S
    Zr13   O373      1.21824      .   S
    Zr146  O374      1.21802      .   S
    Zr14   O374      1.21802      .   S
    Zr147  O375      1.21803      .   S
    Zr15   O375      1.21803      .   S
    N376   O377      1.07104      .   S
    Zr24   O377      1.81973  1_455   S
    N376   O378      1.07265      .   S
    Zr34   O378      1.81946      .   S
    N376   O379      5.39259  1_655   S
    Zr29   O379      1.81658      .   S
    N380   O381      1.07103      .   S
    Zr25   O381      1.81973  1_455   S
    N380   O382      1.07262      .   S
    Zr35   O382      1.81942      .   S
    N380   O383      5.39257  1_665   S
    Zr28   O383      1.81658      .   S
    N384   O385      1.07101      .   S
    Zr61   O385      1.81944      .   S
    N384   O386      1.07266      .   S
    Zr71   O386      1.81945      .   S
    N384   O387      5.39212  1_565   S
    Zr66   O387      1.81611      .   S
    N388   O389      1.07096  1_455   S
    Zr63   O389      1.81955      .   S
    N388   O390      1.07270      .   S
    Zr69   O390      1.81948      .   S
    N388   O391      5.39214  1_565   S
    Zr64   O391      1.81644      .   S
    N392   O393      1.07096      .   S
    Zr60   O393      1.81955      .   S
    N392   O394      1.07267      .   S
    Zr70   O394      1.81949      .   S
    N392   O395      5.39227      .   S
    Zr67   O395      1.81644      .   S
    N396   O397      1.07263      .   S
    Zr59   O397      1.81945      .   S
    N396   O398      1.07103      .   S
    Zr49   O398      1.81963      .   S
    N396   O399      5.39255      .   S
    Zr52   O399      1.81658      .   S
    N400   O401      1.07257      .   S
    Zr68   O401      1.81935      .   S
    N400   O402      1.07089  1_455   S
    Zr62   O402      1.81949      .   S
    N400   O403      5.39270      .   S
    Zr65   O403      1.81647      .   S
    N404   O405      1.07104      .   S
    Zr50   O405      1.81971  1_655   S
    N404   O406      1.07263      .   S
    Zr56   O406      1.81944      .   S
    N404   O407      5.39253  1_445   S
    Zr55   O407      1.81654      .   S
    N408   O409      1.07095      .   S
    Zr38   O409      1.81955      .   S
    N408   O410      1.07268      .   S
    Zr44   O410      1.81946      .   S
    N408   O411      5.39210  1_545   S
    Zr41   O411      1.81640      .   S
    N412   O413      1.07112      .   S
    Zr27   O413      1.81982      .   S
    N412   O414      1.07265      .   S
    Zr33   O414      1.81956      .   S
    N412   O415      5.39254  1_565   S
    Zr30   O415      1.81658      .   S
    N416   O417      1.07267      .   S
    Zr45   O417      1.81946      .   S
    N416   O418      1.07099      .   S
    Zr39   O418      1.81959      .   S
    N416   O419      5.39213      .   S
    Zr40   O419      1.81641      .   S
    N420   O421      1.07104      .   S
    Zr48   O421      1.81966      .   S
    N420   O422      1.07262      .   S
    Zr58   O422      1.81942      .   S
    N420   O423      5.39249  1_545   S
    Zr53   O423      1.81660      .   S
    N424   O425      1.07095  1_655   S
    Zr36   O425      1.81944      .   S
    N424   O426      1.07268      .   S
    Zr46   O426      1.81935      .   S
    N424   O427      5.38881  1_545   S
    Zr43   O427      1.81846      .   S
    N428   O429      1.07102  1_655   S
    Zr37   O429      1.81961      .   S
    N428   O430      1.07270      .   S
    Zr47   O430      1.81950      .   S
    N428   O431      5.38891      .   S
    Zr42   O431      1.81840      .   S
    N432   O433      1.07269      .   S
    Zr32   O433      1.81932      .   S
    N432   O434      1.07109      .   S
    Zr26   O434      1.81985      .   S
    N432   O435      5.39263      .   S
    Zr31   O435      1.81659      .   S
    N436   O437      1.07265      .   S
    Zr57   O437      1.81946      .   S
    N436   O438      1.07104      .   S
    Zr51   O438      1.81973  1_655   S
    N436   O439      5.39262  1_455   S
    Zr54   O439      1.81654      .   S
