# CIF file generated by openbabel 2.4.90, see http://openbabel.sf.net
data_I
_chemical_name_common ''
_cell_length_a 20.297
_cell_length_b 22.807
_cell_length_c 18.089
_cell_angle_alpha 99.858
_cell_angle_beta 89.934
_cell_angle_gamma 116.458
_space_group_name_H-M_alt 'P 1'
_space_group_name_Hall 'P 1'
loop_
    _symmetry_equiv_pos_as_xyz
    x,y,z
loop_
    _atom_site_label
    _atom_site_type_symbol
    _atom_site_fract_x
    _atom_site_fract_y
    _atom_site_fract_z
    _atom_site_occupancy
    Zr0     Zr   0.23007   0.40465   0.97388   1.000
    Zr1     Zr   0.23007   0.90465   0.97388   1.000
    Zr2     Zr   0.73006   0.40465   0.97388   1.000
    Zr3     Zr   0.73007   0.90465   0.97388   1.000
    Zr4     Zr   0.32535   0.09531   0.52608   1.000
    Zr5     Zr   0.32536   0.59532   0.52608   1.000
    Zr6     Zr   0.82535   0.09531   0.52608   1.000
    Zr7     Zr   0.82535   0.59532   0.52608   1.000
    Zr8     Zr   0.26995   0.09537   0.02610   1.000
    Zr9     Zr   0.26996   0.59538   0.02610   1.000
    Zr10    Zr   0.76995   0.09537   0.02610   1.000
    Zr11    Zr   0.76995   0.59537   0.02610   1.000
    Zr12    Zr   0.17466   0.40471   0.47390   1.000
    Zr13    Zr   0.17467   0.90471   0.47390   1.000
    Zr14    Zr   0.67466   0.40471   0.47390   1.000
    Zr15    Zr   0.67466   0.90471   0.47390   1.000
    Zr16    Zr   0.25001   0.25001   0.00000   1.000
    Zr17    Zr   0.25001   0.75001   0.99998   1.000
    Zr18    Zr   0.75001   0.25001   0.00000   1.000
    Zr19    Zr   0.75001   0.75002   0.99999   1.000
    Zr20    Zr   0.00001   0.25001   0.49999   1.000
    Zr21    Zr   0.00000   0.75001   0.49998   1.000
    Zr22    Zr   0.50001   0.25001   0.49999   1.000
    Zr23    Zr   0.50001   0.75001   0.49999   1.000
    N24     N    0.96554   0.48583   0.59666   1.000
    N25     N    0.96554   0.98583   0.59665   1.000
    N26     N    0.52024   0.98588   0.09665   1.000
    N27     N    0.02023   0.98588   0.09665   1.000
    N28     N    0.52024   0.48588   0.09665   1.000
    N29     N    0.53448   0.51419   0.40332   1.000
    N30     N    0.02024   0.48588   0.09659   1.000
    N31     N    0.03448   0.01419   0.40332   1.000
    N32     N    0.47978   0.01414   0.90332   1.000
    N33     N    0.46554   0.98583   0.59665   1.000
    N34     N    0.47978   0.51414   0.90332   1.000
    N35     N    0.53448   0.01420   0.40332   1.000
    N36     N    0.97978   0.01414   0.90331   1.000
    N37     N    0.97978   0.51414   0.90332   1.000
    N38     N    0.46554   0.48583   0.59665   1.000
    N39     N    0.03448   0.51419   0.40332   1.000
    C40     C    0.97249   0.62315   0.46230   1.000
    O41     O    0.99308   0.58618   0.44275   1.000
    O42     O    0.92020   0.60855   0.47359   1.000
    O43     O    0.99328   0.66599   0.47793   1.000
    C44     C    0.12376   0.81169   0.37505   1.000
    O45     O    0.10611   0.76464   0.33166   1.000
    O46     O    0.15040   0.84260   0.39511   1.000
    O47     O    0.08057   0.79310   0.41520   1.000
    O48     O    0.12424   0.83177   0.40868   1.000
    C49     C    0.70765   0.55149   0.45274   1.000
    O50     O    0.69951   0.50231   0.45330   1.000
    O51     O    0.64916   0.53889   0.43583   1.000
    O52     O    0.74242   0.57612   0.47749   1.000
    C53     C    0.52752   0.37687   0.53765   1.000
    O54     O    0.50673   0.33403   0.52203   1.000
    O55     O    0.57981   0.39147   0.52638   1.000
    O56     O    0.50694   0.41384   0.55720   1.000
    C57     C    0.87627   0.68834   0.62489   1.000
    O58     O    0.84962   0.65743   0.60485   1.000
    O59     O    0.89347   0.73539   0.66830   1.000
    O60     O    0.91945   0.70693   0.58474   1.000
    O61     O    0.87579   0.66826   0.59127   1.000
    C62     C    0.62375   0.31169   0.37507   1.000
    O63     O    0.58057   0.29310   0.41523   1.000
    O64     O    0.62423   0.33177   0.40870   1.000
    O65     O    0.60610   0.26464   0.33166   1.000
    O66     O    0.65039   0.34260   0.39511   1.000
    C67     C    0.20765   0.05149   0.45274   1.000
    O68     O    0.24242   0.07612   0.47749   1.000
    O69     O    0.14917   0.03888   0.43583   1.000
    O70     O    0.19952   0.00231   0.45330   1.000
    C71     C    0.29237   0.94854   0.54722   1.000
    O72     O    0.35086   0.96114   0.56413   1.000
    O73     O    0.30051   0.99772   0.54668   1.000
    O74     O    0.25760   0.92391   0.52248   1.000
    C75     C    0.79236   0.44854   0.54724   1.000
    O76     O    0.80050   0.49772   0.54669   1.000
    O77     O    0.75759   0.42390   0.52249   1.000
    O78     O    0.85085   0.46114   0.56415   1.000
    C79     C    0.02753   0.87687   0.53767   1.000
    O80     O    0.07982   0.89148   0.52639   1.000
    O81     O    0.00694   0.91385   0.55722   1.000
    O82     O    0.00673   0.83403   0.52204   1.000
    C83     C    0.37627   0.18834   0.62490   1.000
    O84     O    0.41945   0.20693   0.58475   1.000
    O85     O    0.37579   0.16825   0.59127   1.000
    O86     O    0.34962   0.15742   0.60486   1.000
    O87     O    0.39391   0.23538   0.66831   1.000
    C88     C    0.47248   0.12315   0.46229   1.000
    O89     O    0.49328   0.16599   0.47792   1.000
    O90     O    0.42020   0.10854   0.47358   1.000
    O91     O    0.49308   0.08618   0.44274   1.000
    C92     C    0.81193   0.68842   0.12491   1.000
    O93     O    0.78744   0.70702   0.08474   1.000
    O94     O    0.79242   0.66836   0.09127   1.000
    O95     O    0.80763   0.65747   0.10489   1.000
    O96     O    0.84142   0.73548   0.16830   1.000
    C97     C    0.84385   0.05146   0.95266   1.000
    O98     O    0.88975   0.03885   0.93576   1.000
    O99     O    0.83372   0.07612   0.97743   1.000
    O100    O    0.80280   0.00227   0.95324   1.000
    C101    C    0.84932   0.87686   0.03761   1.000
    O102    O    0.82731   0.83404   0.02200   1.000
    O103    O    0.81162   0.89143   0.02634   1.000
    O104    O    0.90687   0.91386   0.05718   1.000
    C105    C    0.68809   0.31161   0.87506   1.000
    O106    O    0.71258   0.29301   0.91524   1.000
    O107    O    0.70759   0.33167   0.90871   1.000
    O108    O    0.65860   0.26455   0.83168   1.000
    O109    O    0.69239   0.34255   0.89509   1.000
    C110    C    0.84932   0.37686   0.03761   1.000
    O111    O    0.90687   0.41386   0.05717   1.000
    O112    O    0.82731   0.33404   0.02200   1.000
    O113    O    0.81162   0.39143   0.02634   1.000
    C114    C    0.65617   0.94857   0.04730   1.000
    O115    O    0.69722   0.99776   0.04672   1.000
    O116    O    0.66631   0.92391   0.02253   1.000
    O117    O    0.61027   0.96118   0.06419   1.000
    C118    C    0.81193   0.18841   0.12492   1.000
    O119    O    0.78743   0.20701   0.08475   1.000
    O120    O    0.79242   0.16835   0.09128   1.000
    O121    O    0.84141   0.23547   0.16830   1.000
    O122    O    0.80762   0.15747   0.10489   1.000
    C123    C    0.84386   0.55146   0.95268   1.000
    O124    O    0.88975   0.53885   0.93578   1.000
    O125    O    0.80280   0.50227   0.95325   1.000
    O126    O    0.83372   0.57612   0.97744   1.000
    C127    C    0.65070   0.12315   0.96236   1.000
    O128    O    0.68839   0.10858   0.97364   1.000
    O129    O    0.67271   0.16598   0.97798   1.000
    O130    O    0.59314   0.08615   0.94279   1.000
    C131    C    0.68809   0.81161   0.87506   1.000
    O132    O    0.69240   0.84256   0.89509   1.000
    O133    O    0.71259   0.79301   0.91523   1.000
    O134    O    0.70760   0.83167   0.90871   1.000
    O135    O    0.65860   0.76456   0.83168   1.000
    C136    C    0.65617   0.44857   0.04730   1.000
    O137    O    0.61027   0.46118   0.06419   1.000
    O138    O    0.66630   0.42391   0.02254   1.000
    O139    O    0.69722   0.49776   0.04674   1.000
    C140    C    0.65070   0.62316   0.96236   1.000
    O141    O    0.59315   0.58616   0.94279   1.000
    O142    O    0.68839   0.60858   0.97364   1.000
    O143    O    0.67271   0.66598   0.97798   1.000
    C144    C    0.15070   0.62316   0.96236   1.000
    O145    O    0.18840   0.60858   0.97364   1.000
    O146    O    0.17272   0.66598   0.97797   1.000
    O147    O    0.09315   0.58616   0.94279   1.000
    C148    C    0.34932   0.37686   0.03761   1.000
    O149    O    0.40687   0.41386   0.05718   1.000
    O150    O    0.31163   0.39143   0.02634   1.000
    O151    O    0.32731   0.33404   0.02200   1.000
    C152    C    0.34386   0.55147   0.95268   1.000
    O153    O    0.30281   0.50227   0.95325   1.000
    O154    O    0.38976   0.53885   0.93578   1.000
    O155    O    0.33372   0.57612   0.97744   1.000
    C156    C    0.18809   0.81161   0.87506   1.000
    O157    O    0.15861   0.76456   0.83168   1.000
    O158    O    0.21259   0.79301   0.91523   1.000
    O159    O    0.20760   0.83167   0.90871   1.000
    O160    O    0.19240   0.84256   0.89509   1.000
    C161    C    0.15617   0.44857   0.04731   1.000
    O162    O    0.16631   0.42391   0.02254   1.000
    O163    O    0.19722   0.49776   0.04674   1.000
    O164    O    0.11027   0.46118   0.06419   1.000
    C165    C    0.18809   0.31161   0.87506   1.000
    O166    O    0.19240   0.34255   0.89509   1.000
    O167    O    0.20760   0.33167   0.90871   1.000
    O168    O    0.21259   0.29301   0.91524   1.000
    O169    O    0.15860   0.26455   0.83168   1.000
    C170    C    0.34933   0.87686   0.03761   1.000
    O171    O    0.32732   0.83404   0.02199   1.000
    O172    O    0.40688   0.91386   0.05717   1.000
    O173    O    0.31163   0.89143   0.02634   1.000
    C174    C    0.31194   0.68842   0.12491   1.000
    O175    O    0.28744   0.70702   0.08474   1.000
    O176    O    0.29243   0.66836   0.09127   1.000
    O177    O    0.34142   0.73548   0.16830   1.000
    O178    O    0.30763   0.65747   0.10489   1.000
    C179    C    0.15617   0.94857   0.04731   1.000
    O180    O    0.19722   0.99776   0.04674   1.000
    O181    O    0.16631   0.92392   0.02254   1.000
    O182    O    0.11027   0.96118   0.06420   1.000
    C183    C    0.34386   0.05146   0.95266   1.000
    O184    O    0.33372   0.07612   0.97743   1.000
    O185    O    0.38976   0.03885   0.93577   1.000
    O186    O    0.30281   0.00227   0.95322   1.000
    C187    C    0.31193   0.18841   0.12492   1.000
    O188    O    0.30763   0.15747   0.10489   1.000
    O189    O    0.34142   0.23547   0.16830   1.000
    O190    O    0.28744   0.20701   0.08475   1.000
    O191    O    0.29242   0.16835   0.09128   1.000
    C192    C    0.15070   0.12315   0.96234   1.000
    O193    O    0.17271   0.16598   0.97797   1.000
    O194    O    0.09315   0.08616   0.94277   1.000
    O195    O    0.18840   0.10858   0.97363   1.000
    C196    C    0.29237   0.44854   0.54724   1.000
    O197    O    0.35086   0.46114   0.56414   1.000
    O198    O    0.30050   0.49772   0.54669   1.000
    O199    O    0.25760   0.42391   0.52249   1.000
    C200    C    0.52753   0.87687   0.53765   1.000
    O201    O    0.50673   0.83403   0.52203   1.000
    O202    O    0.50694   0.91384   0.55720   1.000
    O203    O    0.57982   0.89148   0.52638   1.000
    C204    C    0.87626   0.18833   0.62488   1.000
    O205    O    0.89346   0.23538   0.66830   1.000
    O206    O    0.84962   0.15742   0.60483   1.000
    O207    O    0.91945   0.20692   0.58474   1.000
    O208    O    0.87578   0.16825   0.59126   1.000
    C209    C    0.62375   0.81169   0.37508   1.000
    O210    O    0.65040   0.84260   0.39512   1.000
    O211    O    0.58057   0.79310   0.41523   1.000
    O212    O    0.62423   0.83177   0.40871   1.000
    O213    O    0.60610   0.76464   0.33167   1.000
    C214    C    0.20766   0.55149   0.45274   1.000
    O215    O    0.24242   0.57612   0.47749   1.000
    O216    O    0.14917   0.53888   0.43583   1.000
    O217    O    0.19952   0.50230   0.45330   1.000
    C218    C    0.02752   0.37687   0.53767   1.000
    O219    O    0.00673   0.33403   0.52204   1.000
    O220    O    0.07982   0.39147   0.52639   1.000
    O221    O    0.00693   0.41384   0.55723   1.000
    C222    C    0.37627   0.68834   0.62490   1.000
    O223    O    0.39392   0.73539   0.66831   1.000
    O224    O    0.41945   0.70693   0.58475   1.000
    O225    O    0.37579   0.66826   0.59127   1.000
    O226    O    0.34963   0.65743   0.60486   1.000
    C227    C    0.79236   0.94854   0.54724   1.000
    O228    O    0.80050   0.99772   0.54669   1.000
    O229    O    0.85085   0.96114   0.56415   1.000
    O230    O    0.75760   0.92391   0.52249   1.000
    C231    C    0.47249   0.62315   0.46230   1.000
    O232    O    0.42020   0.60855   0.47359   1.000
    O233    O    0.49328   0.66599   0.47793   1.000
    O234    O    0.49308   0.58618   0.44275   1.000
    C235    C    0.70765   0.05149   0.45274   1.000
    O236    O    0.69951   0.00231   0.45330   1.000
    O237    O    0.74242   0.07612   0.47749   1.000
    O238    O    0.64916   0.03888   0.43583   1.000
    C239    C    0.97248   0.12315   0.46231   1.000
    O240    O    0.99328   0.16599   0.47794   1.000
    O241    O    0.92019   0.10854   0.47359   1.000
    O242    O    0.99307   0.08618   0.44275   1.000
    C243    C    0.12375   0.31168   0.37507   1.000
    O244    O    0.15039   0.34260   0.39511   1.000
    O245    O    0.10610   0.26464   0.33167   1.000
    O246    O    0.08057   0.29309   0.41523   1.000
    O247    O    0.12423   0.33177   0.40871   1.000
loop_
    _geom_bond_atom_site_label_1
    _geom_bond_atom_site_label_2
    _geom_bond_distance
    _geom_bond_site_symmetry_2
    _ccdc_geom_bond_type
    C40    O41       1.10565      .   S
    N39    O41       2.17651  1_455   S
    C40    O42       0.99338      .   S
    Zr7    O42       2.06756      .   S
    C40    O43       0.86656      .   S
    Zr21   O43       1.83180  1_455   S
    C44    O45       1.12503      .   S
    N30    O45       6.51333      .   S
    C44    O46       0.70299      .   S
    Zr13   O46       1.72313      .   S
    C44    O47       1.11725      .   S
    Zr21   O47       2.25173      .   S
    C44    O48       0.69317      .   S
    Zr13   O48       1.73792      .   S
    C49    O50       1.06040      .   S
    Zr14   O50       2.15204      .   S
    C49    O51       1.11901      .   S
    N29    O51       2.19161      .   S
    C49    O52       0.75850      .   S
    Zr7    O52       1.73567      .   S
    C53    O54       0.86649      .   S
    Zr22   O54       1.83166      .   S
    C53    O55       0.99331      .   S
    Zr14   O55       2.06746      .   S
    C53    O56       1.10565      .   S
    N38    O56       2.17655      .   S
    C57    O58       0.70292      .   S
    Zr7    O58       1.72290      .   S
    C57    O59       1.12613      .   S
    N36    O59       6.51125  1_545   S
    C57    O60       1.11728      .   S
    Zr21   O60       2.25122  1_455   S
    C57    O61       0.69320      .   S
    Zr7    O61       1.73762      .   S
    C62    O63       1.11741      .   S
    Zr22   O63       2.25135      .   S
    C62    O64       0.69335      .   S
    Zr14   O64       1.73768      .   S
    C62    O65       1.12512      .   S
    N26    O65       6.51283  1_565   S
    C62    O66       0.70295      .   S
    Zr14   O66       1.72306      .   S
    C67    O68       0.75850      .   S
    Zr4    O68       1.73567      .   S
    C67    O69       1.11901      .   S
    N31    O69       2.19161      .   S
    C67    O70       1.06038      .   S
    Zr13   O70       2.15195  1_565   S
    C71    O72       1.11898      .   S
    N33    O72       2.19161      .   S
    C71    O73       1.06032      .   S
    Zr4    O73       2.15185  1_545   S
    C71    O74       0.75845      .   S
    Zr13   O74       1.73563      .   S
    C75    O76       1.06038      .   S
    Zr7    O76       2.15200      .   S
    C75    O77       0.75854      .   S
    Zr14   O77       1.73571      .   S
    C75    O78       1.11902      .   S
    N24    O78       2.19164      .   S
    C79    O80       0.99338      .   S
    Zr13   O80       2.06758      .   S
    C79    O81       1.10565      .   S
    N25    O81       2.17651  1_655   S
    C79    O82       0.86652      .   S
    Zr21   O82       1.83160      .   S
    C83    O84       1.11729      .   S
    Zr22   O84       2.25120      .   S
    C83    O85       0.69323      .   S
    Zr4    O85       1.73762      .   S
    C83    O86       0.70293      .   S
    Zr4    O86       1.72292      .   S
    C83    O87       1.12514      .   S
    N34    O87       6.51286      .   S
    C88    O89       0.86655      .   S
    Zr22   O89       1.83173      .   S
    C88    O90       0.99339      .   S
    Zr4    O90       2.06760      .   S
    C88    O91       1.10561      .   S
    N35    O91       2.17647      .   S
    C92    O93       1.11777      .   S
    Zr19   O93       2.25175  1_556   S
    C92    O94       0.69301      .   S
    Zr11   O94       1.73817      .   S
    C92    O95       0.70326      .   S
    Zr11   O95       1.72281      .   S
    C92    O96       1.12527      .   S
    N31    O96       6.51351  1_445   S
    C97    O98       1.11899      .   S
    N36    O98       2.19163      .   S
    C97    O99       0.75893      .   S
    Zr10   O99       1.73618  1_554   S
    C97    O100      1.06023      .   S
    Zr3    O100      2.15175  1_565   S
    C101   O102      0.86613      .   S
    Zr19   O102      1.83123  1_556   S
    C101   O103      0.99381      .   S
    Zr3    O103      2.06828  1_556   S
    C101   O104      1.10556      .   S
    N27    O104      2.17634  1_455   S
    C105   O106      1.11783      .   S
    Zr18   O106      2.25193  1_554   S
    C105   O107      0.69301      .   S
    Zr2    O107      1.73817      .   S
    C105   O108      1.12528      .   S
    N33    O108      6.51353  1_565   S
    C105   O109      0.70325      .   S
    Zr2    O109      1.72283      .   S
    C110   O111      1.10553      .   S
    N30    O111      2.17624  1_455   S
    C110   O112      0.86613      .   S
    Zr18   O112      1.83124      .   S
    C110   O113      0.99381      .   S
    Zr2    O113      2.06830  1_556   S
    C114   O115      1.06018      .   S
    Zr10   O115      2.15151  1_545   S
    C114   O116      0.75885      .   S
    Zr3    O116      1.73611  1_556   S
    C114   O117      1.11898      .   S
    N26    O117      2.19161      .   S
    C118   O119      1.11772      .   S
    Zr18   O119      2.25170      .   S
    C118   O120      0.69299      .   S
    Zr10   O120      1.73819      .   S
    C118   O121      1.12525      .   S
    N39    O121      6.51358  1_455   S
    C118   O122      0.70326      .   S
    Zr10   O122      1.72281      .   S
    C123   O124      1.11898      .   S
    N37    O124      2.19165      .   S
    C123   O125      1.06024      .   S
    Zr2    O125      2.15181      .   S
    C123   O126      0.75885      .   S
    Zr11   O126      1.73611  1_554   S
    C127   O128      0.99379      .   S
    Zr10   O128      2.06825  1_554   S
    C127   O129      0.86621      .   S
    Zr18   O129      1.83140  1_554   S
    C127   O130      1.10555      .   S
    N32    O130      2.17631      .   S
    C131   O132      0.70324      .   S
    Zr3    O132      1.72282      .   S
    C131   O133      1.11780      .   S
    Zr19   O133      2.25182      .   S
    C131   O134      0.69301      .   S
    Zr3    O134      1.73815      .   S
    C131   O135      1.12528      .   S
    N38    O135      6.51363      .   S
    C136   O137      1.11894      .   S
    N28    O137      2.19158      .   S
    C136   O138      0.75889      .   S
    Zr2    O138      1.73614  1_556   S
    C136   O139      1.06017      .   S
    Zr11   O139      2.15168      .   S
    C140   O141      1.10557      .   S
    N34    O141      2.17638      .   S
    C140   O142      0.99379      .   S
    Zr11   O142      2.06824  1_554   S
    C140   O143      0.86622      .   S
    Zr19   O143      1.83141      .   S
    C144   O145      0.99379      .   S
    Zr9    O145      2.06824  1_554   S
    C144   O146      0.86619      .   S
    Zr17   O146      1.83133      .   S
    C144   O147      1.10559      .   S
    N37    O147      2.17643  1_655   S
    C148   O149      1.10556      .   S
    N28    O149      2.17634      .   S
    C148   O150      0.99381      .   S
    Zr0    O150      2.06829  1_556   S
    C148   O151      0.86612      .   S
    Zr16   O151      1.83123      .   S
    C152   O153      1.06024      .   S
    Zr0    O153      2.15180      .   S
    C152   O154      1.11897      .   S
    N34    O154      2.19160      .   S
    C152   O155      0.75885      .   S
    Zr9    O155      1.73610  1_554   S
    C156   O157      1.12528      .   S
    N24    O157      6.51358  1_655   S
    C156   O158      1.11778      .   S
    Zr17   O158      2.25176      .   S
    C156   O159      0.69301      .   S
    Zr1    O159      1.73815      .   S
    C156   O160      0.70324      .   S
    Zr1    O160      1.72282      .   S
    C161   O162      0.75893      .   S
    Zr0    O162      1.73619  1_556   S
    C161   O163      1.06020      .   S
    Zr9    O163      2.15174      .   S
    C161   O164      1.11890      .   S
    N30    O164      2.19144      .   S
    C165   O166      0.70325      .   S
    Zr0    O166      1.72284      .   S
    C165   O167      0.69302      .   S
    Zr0    O167      1.73817      .   S
    C165   O168      1.11783      .   S
    Zr16   O168      2.25192  1_554   S
    C165   O169      1.12528      .   S
    N25    O169      6.51356  1_665   S
    C170   O171      0.86616      .   S
    Zr17   O171      1.83133  1_556   S
    C170   O172      1.10551      .   S
    N26    O172      2.17633      .   S
    C170   O173      0.99382      .   S
    Zr1    O173      2.06831  1_556   S
    C174   O175      1.11777      .   S
    Zr17   O175      2.25181  1_556   S
    C174   O176      0.69298      .   S
    Zr9    O176      1.73815      .   S
    C174   O177      1.12528      .   S
    N35    O177      6.51348  1_545   S
    C174   O178      0.70325      .   S
    Zr9    O178      1.72277      .   S
    C179   O180      1.06015      .   S
    Zr8    O180      2.15161  1_545   S
    C179   O181      0.75893      .   S
    Zr1    O181      1.73619  1_556   S
    C179   O182      1.11897      .   S
    N27    O182      2.19163      .   S
    C183   O184      0.75891      .   S
    Zr8    O184      1.73616  1_554   S
    C183   O185      1.11893      .   S
    N32    O185      2.19158      .   S
    C183   O186      1.06019      .   S
    Zr1    O186      2.15183  1_565   S
    C187   O188      0.70326      .   S
    Zr8    O188      1.72282      .   S
    C187   O189      1.12528      .   S
    N29    O189      6.51353      .   S
    C187   O190      1.11773      .   S
    Zr16   O190      2.25169      .   S
    C187   O191      0.69299      .   S
    Zr8    O191      1.73820      .   S
    C192   O193      0.86624      .   S
    Zr16   O193      1.83141  1_554   S
    C192   O194      1.10557      .   S
    N36    O194      2.17634  1_655   S
    C192   O195      0.99384      .   S
    Zr8    O195      2.06833  1_554   S
    C196   O197      1.11895      .   S
    N38    O197      2.19161      .   S
    C196   O198      1.06038      .   S
    Zr5    O198      2.15199      .   S
    C196   O199      0.75855      .   S
    Zr12   O199      1.73574      .   S
    C200   O201      0.86649      .   S
    Zr23   O201      1.83165      .   S
    C200   O202      1.10563      .   S
    N33    O202      2.17657      .   S
    C200   O203      0.99331      .   S
    Zr15   O203      2.06746      .   S
    C204   O205      1.12622      .   S
    N37    O205      6.51143      .   S
    C204   O206      0.70295      .   S
    Zr6    O206      1.72266      .   S
    C204   O207      1.11721      .   S
    Zr20   O207      2.25115  1_455   S
    C204   O208      0.69312      .   S
    Zr6    O208      1.73754      .   S
    C209   O210      0.70291      .   S
    Zr15   O210      1.72297      .   S
    C209   O211      1.11732      .   S
    Zr23   O211      2.25125      .   S
    C209   O212      0.69326      .   S
    Zr15   O212      1.73761      .   S
    C209   O213      1.12513      .   S
    N28    O213      6.51300      .   S
    C214   O215      0.75851      .   S
    Zr5    O215      1.73568      .   S
    C214   O216      1.11902      .   S
    N39    O216      2.19164      .   S
    C214   O217      1.06039      .   S
    Zr12   O217      2.15200      .   S
    C218   O219      0.86652      .   S
    Zr20   O219      1.83169      .   S
    C218   O220      0.99340      .   S
    Zr12   O220      2.06759      .   S
    C218   O221      1.10566      .   S
    N24    O221      2.17652  1_655   S
    C222   O223      1.12514      .   S
    N32    O223      6.51283  1_545   S
    C222   O224      1.11729      .   S
    Zr23   O224      2.25119      .   S
    C222   O225      0.69323      .   S
    Zr5    O225      1.73764      .   S
    C222   O226      0.70293      .   S
    Zr5    O226      1.72293      .   S
    C227   O228      1.06035      .   S
    Zr6    O228      2.15191  1_545   S
    C227   O229      1.11900      .   S
    N25    O229      2.19158      .   S
    C227   O230      0.75854      .   S
    Zr15   O230      1.73571      .   S
    C231   O232      0.99336      .   S
    Zr5    O232      2.06755      .   S
    C231   O233      0.86656      .   S
    Zr23   O233      1.83172      .   S
    C231   O234      1.10563      .   S
    N29    O234      2.17648      .   S
    C235   O236      1.06039      .   S
    Zr15   O236      2.15197  1_565   S
    C235   O237      0.75849      .   S
    Zr6    O237      1.73567      .   S
    C235   O238      1.11899      .   S
    N35    O238      2.19158      .   S
    C239   O240      0.86657      .   S
    Zr20   O240      1.83171  1_455   S
    C239   O241      0.99337      .   S
    Zr6    O241      2.06754      .   S
    C239   O242      1.10565      .   S
    N31    O242      2.17651  1_455   S
    C243   O244      0.70291      .   S
    Zr12   O244      1.72309      .   S
    C243   O245      1.12511      .   S
    N27    O245      6.51284  1_565   S
    C243   O246      1.11736      .   S
    Zr20   O246      2.25130      .   S
    C243   O247      0.69330      .   S
    Zr12   O247      1.73767      .   S
