# CIF file generated by openbabel 2.4.90, see http://openbabel.sf.net
data_I
_chemical_name_common ''
_cell_length_a 9.0155
_cell_length_b 9.0175
_cell_length_c 19.522
_cell_angle_alpha 90.006
_cell_angle_beta 90.004
_cell_angle_gamma 111.285
_space_group_name_H-M_alt 'P 1'
_space_group_name_Hall 'P 1'
loop_
    _symmetry_equiv_pos_as_xyz
    x,y,z
loop_
    _atom_site_label
    _atom_site_type_symbol
    _atom_site_fract_x
    _atom_site_fract_y
    _atom_site_fract_z
    _atom_site_occupancy
    Zr0     Zr   0.01741   0.30562   0.32651   1.000
    Zr1     Zr   0.14192   0.16863   0.08235   1.000
    Zr2     Zr   0.49665   0.20644   0.31759   1.000
    Zr3     Zr   0.48256   0.19457   0.82653   1.000
    Zr4     Zr   0.35799   0.33154   0.58236   1.000
    Zr5     Zr   0.00333   0.29380   0.81759   1.000
    Zr6     Zr   0.98256   0.69456   0.67625   1.000
    Zr7     Zr   0.85804   0.83159   0.92040   1.000
    Zr8     Zr   0.50328   0.79375   0.68518   1.000
    Zr9     Zr   0.51739   0.80562   0.17623   1.000
    Zr10    Zr   0.64198   0.66865   0.42040   1.000
    Zr11    Zr   0.99657   0.70642   0.18516   1.000
    Zr12    Zr   0.07000   0.27021   0.24163   1.000
    Zr13    Zr   0.21620   0.41815   0.23291   1.000
    Zr14    Zr   0.42997   0.22998   0.74165   1.000
    Zr15    Zr   0.28370   0.08211   0.73292   1.000
    Zr16    Zr   0.93000   0.73000   0.76113   1.000
    Zr17    Zr   0.78376   0.58209   0.76984   1.000
    Zr18    Zr   0.57003   0.77021   0.26110   1.000
    Zr19    Zr   0.71627   0.91810   0.26984   1.000
    O20     O    0.54371   0.78792   0.21867   1.000
    O21     O    0.14310   0.34418   0.23727   1.000
    O22     O    0.04370   0.28791   0.28407   1.000
    O23     O    0.64315   0.84416   0.26547   1.000
    O24     O    0.95628   0.71228   0.71869   1.000
    O25     O    0.35683   0.15605   0.73728   1.000
    O26     O    0.45626   0.21228   0.78409   1.000
    O27     O    0.85688   0.65605   0.76548   1.000
    N28     N    0.30598   0.01392   0.19277   1.000
    O29     O    0.39354   0.94887   0.18345   1.000
    O30     O    0.36609   0.09151   0.23897   1.000
    O31     O    0.19224   0.90047   0.19660   1.000
    O32     O    0.25432   0.07279   0.14961   1.000
    N33     N    0.19392   0.48625   0.69278   1.000
    O34     O    0.13382   0.40867   0.73898   1.000
    O35     O    0.30763   0.59971   0.69662   1.000
    O36     O    0.10636   0.55129   0.68346   1.000
    O37     O    0.24559   0.42738   0.64962   1.000
    N38     N    0.79932   0.49019   0.85952   1.000
    O39     O    0.82054   0.61102   0.88477   1.000
    O40     O    0.67937   0.38740   0.84898   1.000
    O41     O    0.79530   0.51747   0.83313   1.000
    O42     O    0.88466   0.43020   0.84526   1.000
    N43     N    0.80601   0.51393   0.30998   1.000
    O44     O    0.89356   0.44887   0.31929   1.000
    O45     O    0.86610   0.59151   0.26378   1.000
    O46     O    0.75436   0.57280   0.35314   1.000
    O47     O    0.69228   0.40049   0.30614   1.000
    N48     N    0.16935   0.12891   0.92123   1.000
    O49     O    0.28767   0.15195   0.88879   1.000
    O50     O    0.10780   0.19747   0.88719   1.000
    O51     O    0.16993   0.14906   0.98120   1.000
    O52     O    0.06421   0.01044   0.91847   1.000
    N53     N    0.70079   0.01006   0.35952   1.000
    O54     O    0.70478   0.98277   0.33313   1.000
    O55     O    0.82072   0.11280   0.34898   1.000
    O56     O    0.61544   0.07009   0.34526   1.000
    O57     O    0.67951   0.88922   0.38477   1.000
    N58     N    0.33062   0.37131   0.42053   1.000
    O59     O    0.21231   0.34827   0.38843   1.000
    O60     O    0.39216   0.30274   0.38684   1.000
    O61     O    0.43578   0.48977   0.41812   1.000
    O62     O    0.33001   0.35115   0.47999   1.000
    N63     N    0.83057   0.87130   0.08222   1.000
    O64     O    0.93573   0.98976   0.08463   1.000
    O65     O    0.83000   0.85115   0.02277   1.000
    O66     O    0.71226   0.84827   0.11431   1.000
    O67     O    0.89209   0.80272   0.11591   1.000
    N68     N    0.29921   0.99014   0.64324   1.000
    O69     O    0.32047   0.11097   0.61799   1.000
    O70     O    0.17928   0.88738   0.65378   1.000
    O71     O    0.38455   0.93013   0.65751   1.000
    O72     O    0.29521   0.01744   0.66963   1.000
    N73     N    0.69392   0.98628   0.81000   1.000
    O74     O    0.63382   0.90869   0.76379   1.000
    O75     O    0.60635   0.05130   0.81931   1.000
    O76     O    0.80764   0.09976   0.80616   1.000
    O77     O    0.74562   0.92743   0.85315   1.000
    N78     N    0.66933   0.62887   0.58223   1.000
    O79     O    0.56418   0.51041   0.58464   1.000
    O80     O    0.78764   0.65191   0.61433   1.000
    O81     O    0.60777   0.69743   0.61593   1.000
    O82     O    0.66994   0.64904   0.52278   1.000
    N83     N    0.20069   0.51004   0.14323   1.000
    O84     O    0.17943   0.38920   0.11798   1.000
    O85     O    0.20469   0.48277   0.16962   1.000
    O86     O    0.32063   0.61280   0.15377   1.000
    O87     O    0.11534   0.57006   0.15749   1.000
loop_
    _geom_bond_atom_site_label_1
    _geom_bond_atom_site_label_2
    _geom_bond_distance
    _geom_bond_site_symmetry_2
    _ccdc_geom_bond_type
    Zr9    O20       0.89196      .   S
    Zr18   O20       0.89196      .   S
    Zr13   O21       0.75323      .   S
    Zr12   O21       0.75323      .   S
    Zr12   O22       0.89196      .   S
    Zr0    O22       0.89196      .   S
    Zr18   O23       0.75322      .   S
    Zr19   O23       0.75322      .   S
    Zr6    O24       0.89196      .   S
    Zr16   O24       0.89196      .   S
    Zr15   O25       0.75323      .   S
    Zr14   O25       0.75323      .   S
    Zr14   O26       0.89197      .   S
    Zr3    O26       0.89197      .   S
    Zr16   O27       0.75325      .   S
    Zr17   O27       0.75325      .   S
    N28    O29       1.15607  1_545   S
    Zr9    O29       1.99560      .   S
    N28    O30       1.14953      .   S
    Zr2    O30       1.98210      .   S
    N28    O31       1.15846  1_545   S
    Zr11   O31       1.99563  1_655   S
    N28    O32       1.17812      .   S
    Zr1    O32       2.03314      .   S
    N33    O34       1.14949      .   S
    Zr5    O34       1.98199      .   S
    N33    O35       1.15842      .   S
    Zr8    O35       1.99556      .   S
    N33    O36       1.15598      .   S
    Zr6    O36       1.99538  1_655   S
    N33    O37       1.17815      .   S
    Zr4    O37       2.03319      .   S
    N38    O39       1.14688      .   S
    Zr7    O39       2.01634      .   S
    N38    O40       1.15890      .   S
    Zr3    O40       2.03070      .   S
    N38    O41       0.57759      .   S
    Zr17   O41       1.38603      .   S
    N38    O42       1.12441      .   S
    Zr5    O42       1.97597  1_455   S
    N43    O44       1.15609      .   S
    Zr0    O44       1.99557  1_455   S
    N43    O45       1.14957      .   S
    Zr11   O45       1.98213      .   S
    N43    O46       1.17809      .   S
    Zr10   O46       2.03310      .   S
    N43    O47       1.15839      .   S
    Zr2    O47       1.99550      .   S
    N48    O49       1.19216      .   S
    Zr3    O49       2.05483      .   S
    N48    O50       1.17514      .   S
    Zr5    O50       2.02031      .   S
    N48    O51       1.18452      .   S
    Zr1    O51       2.00662  1_554   S
    N48    O52       1.14339      .   S
    Zr7    O52       1.97004  1_665   S
    N53    O54       0.57758  1_545   S
    Zr19   O54       1.38603      .   S
    N53    O55       1.15864      .   S
    Zr0    O55       2.03023  1_455   S
    N53    O56       1.12476      .   S
    Zr2    O56       1.97653      .   S
    N53    O57       1.14695  1_545   S
    Zr10   O57       2.01646      .   S
    N58    O59       1.18852      .   S
    Zr0    O59       2.05075      .   S
    N58    O60       1.17126      .   S
    Zr2    O60       2.01568      .   S
    N58    O61       1.14322      .   S
    Zr10   O61       1.97044      .   S
    N58    O62       1.17458      .   S
    Zr4    O62       2.03011      .   S
    N63    O64       1.14320      .   S
    Zr1    O64       1.97035  1_445   S
    N63    O65       1.17445      .   S
    Zr7    O65       2.03000  1_556   S
    N63    O66       1.18850      .   S
    Zr9    O66       2.05072      .   S
    N63    O67       1.17125      .   S
    Zr11   O67       2.01563      .   S
    N68    O69       1.14694  1_565   S
    Zr4    O69       2.01643      .   S
    N68    O70       1.15874      .   S
    Zr6    O70       2.03039  1_655   S
    N68    O71       1.12460      .   S
    Zr8    O71       1.97628      .   S
    N68    O72       0.57759  1_565   S
    Zr15   O72       1.38604      .   S
    N73    O74       1.14947      .   S
    Zr8    O74       1.98200      .   S
    N73    O75       1.15589  1_565   S
    Zr3    O75       1.99529      .   S
    N73    O76       1.15851  1_565   S
    Zr5    O76       1.99572  1_455   S
    N73    O77       1.17819      .   S
    Zr7    O77       2.03325      .   S
    N78    O79       1.14314      .   S
    Zr4    O79       1.97032      .   S
    N78    O80       1.18855      .   S
    Zr6    O80       2.05080      .   S
    N78    O81       1.17133      .   S
    Zr8    O81       2.01579      .   S
    N78    O82       1.17459      .   S
    Zr10   O82       2.03014      .   S
    N83    O84       1.14689      .   S
    Zr1    O84       2.01636      .   S
    N83    O85       0.57758      .   S
    Zr13   O85       1.38602      .   S
    N83    O86       1.15875      .   S
    Zr9    O86       2.03044      .   S
    N83    O87       1.12465      .   S
    Zr11   O87       1.97636  1_655   S
