# CIF file generated by openbabel 2.4.90, see http://openbabel.sf.net
data_I
_chemical_name_common ''
_cell_length_a 9.0155
_cell_length_b 9.0175
_cell_length_c 19.522
_cell_angle_alpha 90.006
_cell_angle_beta 90.004
_cell_angle_gamma 111.285
_space_group_name_H-M_alt 'P 1'
_space_group_name_Hall 'P 1'
loop_
    _symmetry_equiv_pos_as_xyz
    x,y,z
loop_
    _atom_site_label
    _atom_site_type_symbol
    _atom_site_fract_x
    _atom_site_fract_y
    _atom_site_fract_z
    _atom_site_occupancy
    N0      N    0.30598   0.01392   0.19277   1.000
    N1      N    0.19392   0.48625   0.69278   1.000
    N2      N    0.79932   0.49019   0.85952   1.000
    N3      N    0.80601   0.51393   0.30998   1.000
    N4      N    0.16935   0.12891   0.92123   1.000
    N5      N    0.70079   0.01006   0.35952   1.000
    N6      N    0.33062   0.37131   0.42053   1.000
    N7      N    0.83057   0.87130   0.08222   1.000
    N8      N    0.29921   0.99014   0.64324   1.000
    N9      N    0.69392   0.98628   0.81000   1.000
    N10     N    0.66933   0.62887   0.58223   1.000
    N11     N    0.20069   0.51004   0.14323   1.000
    Zr12    Zr   0.89877   0.66889   0.73574   1.000
    O13     O    0.84704   0.59318   0.78443   1.000
    O14     O    0.03903   0.77813   0.69476   1.000
    O15     O    0.84321   0.66040   0.67504   1.000
    O16     O    0.00257   0.61009   0.70960   1.000
    Zr17    Zr   0.10120   0.33132   0.26702   1.000
    O18     O    0.15294   0.40705   0.21832   1.000
    O19     O    0.99738   0.39010   0.29316   1.000
    O20     O    0.96096   0.22206   0.30800   1.000
    O21     O    0.15675   0.33980   0.32772   1.000
    Zr22    Zr   0.35799   0.33154   0.58236   1.000
    O23     O    0.33923   0.22126   0.60018   1.000
    O24     O    0.46109   0.42097   0.58350   1.000
    O25     O    0.30179   0.37946   0.61599   1.000
    O26     O    0.34400   0.34134   0.53118   1.000
    Zr27    Zr   0.60123   0.83131   0.23572   1.000
    O28     O    0.49739   0.89009   0.20959   1.000
    O29     O    0.65675   0.83979   0.17502   1.000
    O30     O    0.46093   0.72206   0.19475   1.000
    O31     O    0.65301   0.90704   0.28443   1.000
    Zr32    Zr   0.50328   0.79375   0.68518   1.000
    O33     O    0.56855   0.85122   0.72449   1.000
    O34     O    0.44392   0.86194   0.67134   1.000
    O35     O    0.55552   0.74559   0.65056   1.000
    O36     O    0.40546   0.69673   0.69090   1.000
    Zr37    Zr   0.85804   0.83159   0.92040   1.000
    O38     O    0.80183   0.87951   0.88677   1.000
    O39     O    0.83929   0.72130   0.90259   1.000
    O40     O    0.96113   0.92102   0.91944   1.000
    O41     O    0.84402   0.84137   0.97158   1.000
    Zr42    Zr   0.39874   0.16889   0.76703   1.000
    O43     O    0.34698   0.09316   0.71833   1.000
    O44     O    0.50255   0.11009   0.79317   1.000
    O45     O    0.53906   0.27814   0.80801   1.000
    O46     O    0.34320   0.16042   0.82791   1.000
    Zr47    Zr   0.64198   0.66865   0.42040   1.000
    O48     O    0.65596   0.65884   0.47159   1.000
    O49     O    0.69817   0.62072   0.38677   1.000
    O50     O    0.66075   0.77893   0.40259   1.000
    O51     O    0.53888   0.57921   0.41926   1.000
    Zr52    Zr   0.99657   0.70642   0.18516   1.000
    O53     O    0.94433   0.75457   0.15054   1.000
    O54     O    0.05596   0.63824   0.17132   1.000
    O55     O    0.09441   0.80345   0.19088   1.000
    O56     O    0.93134   0.64896   0.22447   1.000
    Zr57    Zr   0.00333   0.29380   0.81759   1.000
    O58     O    0.90548   0.19678   0.81188   1.000
    O59     O    0.06858   0.35124   0.77829   1.000
    O60     O    0.94399   0.36200   0.83143   1.000
    O61     O    0.05557   0.24564   0.85239   1.000
    Zr62    Zr   0.49665   0.20644   0.31759   1.000
    O63     O    0.43137   0.14897   0.27828   1.000
    O64     O    0.59446   0.30346   0.31187   1.000
    O65     O    0.55605   0.13826   0.33142   1.000
    O66     O    0.44440   0.25459   0.35221   1.000
    Zr67    Zr   0.14192   0.16863   0.08235   1.000
    O68     O    0.16067   0.27892   0.10017   1.000
    O69     O    0.19812   0.12071   0.11598   1.000
    O70     O    0.15592   0.15884   0.03178   1.000
    O71     O    0.03882   0.07919   0.08349   1.000
loop_
    _geom_bond_atom_site_label_1
    _geom_bond_atom_site_label_2
    _geom_bond_distance
    _geom_bond_site_symmetry_2
    _ccdc_geom_bond_type
    Zr12   O13       1.16464      .   S
    N2     O13       1.70477      .   S
    Zr12   O14       1.51832  1_655   S
    N8     O14       2.62936      .   S
    Zr12   O15       1.27795      .   S
    N10    O15       2.34443      .   S
    Zr12   O16       1.33317  1_655   S
    N1     O16       2.39366      .   S
    Zr17   O18       1.16475      .   S
    N11    O18       1.70490      .   S
    Zr17   O19       1.33322  1_455   S
    N3     O19       2.39384      .   S
    Zr17   O20       1.51832  1_455   S
    N5     O20       2.62927      .   S
    Zr17   O21       1.27799      .   S
    N6     O21       2.34445      .   S
    Zr22   O23       1.00822      .   S
    N8     O23       2.15287  1_565   S
    Zr22   O24       0.98516      .   S
    N10    O24       2.11765      .   S
    Zr22   O25       1.01660      .   S
    N1     O25       2.19088      .   S
    Zr22   O26       1.01506      .   S
    N6     O26       2.18558      .   S
    Zr27   O28       1.33343      .   S
    N0     O28       2.39406  1_545   S
    Zr27   O29       1.27795      .   S
    N7     O29       2.34429      .   S
    Zr27   O30       1.51836      .   S
    N11    O30       2.62942      .   S
    Zr27   O31       1.16473      .   S
    N5     O31       1.70487  1_545   S
    Zr32   O33       0.99100      .   S
    N9     O33       2.13245      .   S
    Zr32   O34       0.98814      .   S
    N8     O34       2.10581      .   S
    Zr32   O35       1.00790      .   S
    N10    O35       2.17332      .   S
    Zr32   O36       0.99778      .   S
    N1     O36       2.14781      .   S
    Zr37   O38       1.01663      .   S
    N9     O38       2.19096      .   S
    Zr37   O39       1.00817      .   S
    N2     O39       2.15276      .   S
    Zr37   O40       0.98502      .   S
    N4     O40       2.11768  1_445   S
    Zr37   O41       1.01500      .   S
    N7     O41       2.18540  1_554   S
    Zr42   O43       1.16469      .   S
    N8     O43       1.70481  1_565   S
    Zr42   O44       1.33322      .   S
    N9     O44       2.39363  1_565   S
    Zr42   O45       1.51841      .   S
    N2     O45       2.62960      .   S
    Zr42   O46       1.28115      .   S
    N4     O46       2.35232      .   S
    Zr47   O48       1.01507      .   S
    N10    O48       2.18561      .   S
    Zr47   O49       1.01655      .   S
    N3     O49       2.19076      .   S
    Zr47   O50       1.00823      .   S
    N5     O50       2.15290  1_545   S
    Zr47   O51       0.98522      .   S
    N6     O51       2.11780      .   S
    Zr52   O53       1.00781      .   S
    N7     O53       2.17316      .   S
    Zr52   O54       0.98818  1_655   S
    N11    O54       2.10591      .   S
    Zr52   O55       0.99782  1_655   S
    N0     O55       2.14790  1_545   S
    Zr52   O56       0.99107      .   S
    N3     O56       2.13264      .   S
    Zr57   O58       0.99786  1_455   S
    N9     O58       2.14799  1_565   S
    Zr57   O59       0.99100      .   S
    N1     O59       2.13247      .   S
    Zr57   O60       0.98798  1_455   S
    N2     O60       2.10544      .   S
    Zr57   O61       1.01015      .   S
    N4     O61       2.17955      .   S
    Zr62   O63       0.99105      .   S
    N0     O63       2.13257      .   S
    Zr62   O64       0.99775      .   S
    N3     O64       2.14774      .   S
    Zr62   O65       0.98827      .   S
    N5     O65       2.10613      .   S
    Zr62   O66       1.00784      .   S
    N6     O66       2.17318      .   S
    Zr67   O68       1.00818      .   S
    N11    O68       2.15279      .   S
    Zr67   O69       1.01657      .   S
    N0     O69       2.19082      .   S
    Zr67   O70       1.00331      .   S
    N4     O70       2.18373  1_556   S
    Zr67   O71       0.98518      .   S
    N7     O71       2.11774  1_665   S
