# CIF file generated by openbabel 2.4.90, see http://openbabel.sf.net
data_I
_chemical_name_common ''
_cell_length_a 17.739
_cell_length_b 17.719
_cell_length_c 17.713
_cell_angle_alpha 96.741
_cell_angle_beta 96.796
_cell_angle_gamma 96.639
_space_group_name_H-M_alt 'P 1'
_space_group_name_Hall 'P 1'
loop_
    _symmetry_equiv_pos_as_xyz
    x,y,z
loop_
    _atom_site_label
    _atom_site_type_symbol
    _atom_site_fract_x
    _atom_site_fract_y
    _atom_site_fract_z
    _atom_site_occupancy
    N0      N    0.34848   0.88347   0.34680   1.000
    N1      N    0.34881   0.34765   0.88344   1.000
    N2      N    0.88445   0.34822   0.34746   1.000
    Zr3     Zr   0.23855   0.87938   0.87879   1.000
    O4      O    0.25319   0.72729   0.87394   1.000
    O5      O    0.25317   0.87440   0.72660   1.000
    Zr6     Zr   0.87987   0.87969   0.23738   1.000
    O7      O    0.87495   0.72768   0.25191   1.000
    O8      O    0.72788   0.87479   0.25161   1.000
    Zr9     Zr   0.88033   0.23805   0.87905   1.000
    O10     O    0.72836   0.25238   0.87424   1.000
    O11     O    0.87530   0.25259   0.72697   1.000
    O12     O    0.27417   0.99946   0.88304   1.000
    O13     O    0.00407   0.26390   0.88022   1.000
    O14     O    0.88120   0.00347   0.26335   1.000
    O15     O    0.88440   0.27365   0.99917   1.000
    O16     O    0.00363   0.88066   0.26315   1.000
    O17     O    0.27406   0.88345   0.99882   1.000
loop_
    _geom_bond_atom_site_label_1
    _geom_bond_atom_site_label_2
    _geom_bond_distance
    _geom_bond_site_symmetry_2
    _ccdc_geom_bond_type
    Zr3    O4        2.72937      .   S
    N1     O4        7.14095      .   S
    Zr3    O5        2.73067      .   S
    N0     O5        7.14321      .   S
    Zr6    O7        2.72819      .   S
    N2     O7        7.13906      .   S
    Zr6    O8        2.72979      .   S
    N0     O8        7.14339      .   S
    Zr9    O10       2.72913      .   S
    N1     O10       7.14342      .   S
    Zr9    O11       2.72797      .   S
    N2     O11       7.13831      .   S
    N1     O12       6.15757  1_545   S
    Zr3    O12       2.13833      .   S
    Zr9    O13       2.18711  1_655   S
    N1     O13       6.11571      .   S
    N2     O14       6.10744      .   S
    Zr6    O14       2.18417  1_565   S
    N2     O15       6.15556  1_554   S
    Zr9    O15       2.13734      .   S
    N0     O16       6.11441      .   S
    Zr6    O16       2.18645  1_655   S
    N0     O17       6.14879  1_554   S
    Zr3    O17       2.13521      .   S
