# CIF file generated by openbabel 2.4.90, see http://openbabel.sf.net
data_I
_chemical_name_common ''
_cell_length_a 17.739
_cell_length_b 17.719
_cell_length_c 17.713
_cell_angle_alpha 96.741
_cell_angle_beta 96.796
_cell_angle_gamma 96.639
_space_group_name_H-M_alt 'P 1'
_space_group_name_Hall 'P 1'
loop_
    _symmetry_equiv_pos_as_xyz
    x,y,z
loop_
    _atom_site_label
    _atom_site_type_symbol
    _atom_site_fract_x
    _atom_site_fract_y
    _atom_site_fract_z
    _atom_site_occupancy
    N0      N    0.34848   0.88347   0.34680   1.000
    N1      N    0.34881   0.34765   0.88344   1.000
    N2      N    0.88445   0.34822   0.34746   1.000
    Zr3     Zr   0.23855   0.87938   0.87879   1.000
    O4      O    0.24683   0.00372   0.87405   1.000
    O5      O    0.25319   0.72729   0.87394   1.000
    O6      O    0.24664   0.87456   0.00295   1.000
    O7      O    0.25317   0.87440   0.72660   1.000
    O8      O    0.28535   0.88647   0.98868   1.000
    O9      O    0.27908   0.01560   0.88600   1.000
    O10     O    0.28538   0.98926   0.88607   1.000
    O11     O    0.27891   0.88629   0.01498   1.000
    Zr12    Zr   0.87987   0.87969   0.23738   1.000
    O13     O    0.00427   0.87467   0.24544   1.000
    O14     O    0.87495   0.72768   0.25191   1.000
    O15     O    0.87538   0.00411   0.24561   1.000
    O16     O    0.72788   0.87479   0.25161   1.000
    O17     O    0.01618   0.88660   0.27777   1.000
    O18     O    0.88700   0.01601   0.27801   1.000
    O19     O    0.98979   0.88669   0.28395   1.000
    O20     O    0.88704   0.98964   0.28419   1.000
    Zr21    Zr   0.88033   0.23805   0.87905   1.000
    O22     O    0.87571   0.24627   0.00342   1.000
    O23     O    0.00476   0.24620   0.87426   1.000
    O24     O    0.72836   0.25238   0.87424   1.000
    O25     O    0.87530   0.25259   0.72697   1.000
    O26     O    0.88731   0.27863   0.01532   1.000
    O27     O    0.01659   0.27852   0.88614   1.000
    O28     O    0.99019   0.28467   0.88624   1.000
    O29     O    0.88728   0.28484   0.98897   1.000
loop_
    _geom_bond_atom_site_label_1
    _geom_bond_atom_site_label_2
    _geom_bond_distance
    _geom_bond_site_symmetry_2
    _ccdc_geom_bond_type
    Zr3    O4        2.20327  1_565   S
    N1     O4        6.13025      .   S
    Zr3    O5        2.72937      .   S
    N1     O5        7.14095      .   S
    Zr3    O6        2.19932  1_556   S
    N0     O6        6.12272      .   S
    Zr3    O7        2.73067      .   S
    N0     O7        7.14321      .   S
    Zr3    O8        2.00744      .   S
    N0     O8        6.31722  1_554   S
    Zr3    O9        2.42167  1_565   S
    N1     O9        5.87713      .   S
    Zr3    O10       2.00979      .   S
    N1     O10       6.32651  1_545   S
    Zr3    O11       2.41840  1_556   S
    N0     O11       5.86833      .   S
    Zr12   O13       2.20722  1_655   S
    N0     O13       6.13591      .   S
    Zr12   O14       2.72819      .   S
    N2     O14       7.13906      .   S
    Zr12   O15       2.20342  1_565   S
    N2     O15       6.13031      .   S
    Zr12   O16       2.72979      .   S
    N0     O16       7.14339      .   S
    Zr12   O17       2.42388  1_655   S
    N0     O17       5.88476      .   S
    Zr12   O18       2.42233  1_565   S
    N2     O18       5.87711      .   S
    Zr12   O19       2.00936      .   S
    N0     O19       6.33632  1_455   S
    Zr12   O20       2.00944      .   S
    N2     O20       6.32727  1_545   S
    Zr21   O22       2.20253  1_556   S
    N2     O22       6.12797      .   S
    Zr21   O23       2.20769  1_655   S
    N1     O23       6.13726      .   S
    Zr21   O24       2.72913      .   S
    N1     O24       7.14342      .   S
    Zr21   O25       2.72797      .   S
    N2     O25       7.13831      .   S
    Zr21   O26       2.42078  1_556   S
    N2     O26       5.87510      .   S
    Zr21   O27       2.42461  1_655   S
    N1     O27       5.88605      .   S
    Zr21   O28       2.01026      .   S
    N1     O28       6.33749  1_455   S
    Zr21   O29       2.00848      .   S
    N2     O29       6.32461  1_554   S
