# CIF file generated by openbabel 2.4.90, see http://openbabel.sf.net
data_I
_chemical_name_common ''
_cell_length_a 17.739
_cell_length_b 17.719
_cell_length_c 17.713
_cell_angle_alpha 96.741
_cell_angle_beta 96.796
_cell_angle_gamma 96.639
_space_group_name_H-M_alt 'P 1'
_space_group_name_Hall 'P 1'
loop_
    _symmetry_equiv_pos_as_xyz
    x,y,z
loop_
    _atom_site_label
    _atom_site_type_symbol
    _atom_site_fract_x
    _atom_site_fract_y
    _atom_site_fract_z
    _atom_site_occupancy
    Zr0     Zr   0.30527   0.90409   0.90378   1.000
    Zr1     Zr   0.90483   0.30495   0.90380   1.000
    Zr2     Zr   0.90454   0.90442   0.30435   1.000
    Zr3     Zr   0.85582   0.17115   0.85430   1.000
    Zr4     Zr   0.85520   0.85496   0.17040   1.000
    Zr5     Zr   0.17183   0.85466   0.85380   1.000
    O6      O    0.23855   0.87938   0.87879   1.000
    O7      O    0.88033   0.23805   0.87905   1.000
    O8      O    0.87987   0.87969   0.23737   1.000
    N9      N    0.34848   0.88347   0.34680   1.000
    O10     O    0.09971   0.89369   0.33053   1.000
    O11     O    0.25473   0.86974   0.12712   1.000
    O12     O    0.31928   0.89320   0.15117   1.000
    O13     O    0.57590   0.86988   0.26585   1.000
    O14     O    0.33215   0.89356   0.09857   1.000
    O15     O    0.12867   0.86964   0.25350   1.000
    O16     O    0.15249   0.89351   0.31816   1.000
    O17     O    0.26779   0.86942   0.57442   1.000
    N18     N    0.34881   0.34765   0.88344   1.000
    O19     O    0.33222   0.09914   0.89334   1.000
    O20     O    0.12919   0.25435   0.86947   1.000
    O21     O    0.15285   0.31899   0.89323   1.000
    O22     O    0.26783   0.57521   0.86910   1.000
    O23     O    0.10005   0.33130   0.89342   1.000
    O24     O    0.25510   0.12806   0.86931   1.000
    O25     O    0.31962   0.15183   0.89320   1.000
    O26     O    0.57639   0.26672   0.86943   1.000
    N27     N    0.88445   0.34822   0.34746   1.000
    O28     O    0.89424   0.33163   0.09889   1.000
    O29     O    0.87089   0.12852   0.25384   1.000
    O30     O    0.89413   0.15232   0.31864   1.000
    O31     O    0.87027   0.26712   0.57490   1.000
    O32     O    0.89422   0.09960   0.33101   1.000
    O33     O    0.87109   0.25449   0.12779   1.000
    O34     O    0.89429   0.31921   0.15160   1.000
    O35     O    0.87003   0.57566   0.26645   1.000
loop_
    _geom_bond_atom_site_label_1
    _geom_bond_atom_site_label_2
    _geom_bond_distance
    _geom_bond_site_symmetry_2
    _ccdc_geom_bond_type
    Zr0    O6        1.22446      .   S
    Zr5    O6        1.22446      .   S
    Zr1    O7        1.22482      .   S
    Zr3    O7        1.22482      .   S
    Zr2    O8        1.22541      .   S
    Zr4    O8        1.22541      .   S
    N9     O10       4.41412      .   S
    Zr2    O10       3.46862  1_655   S
    N9     O11       4.01488      .   S
    Zr5    O11       4.85720  1_556   S
    N9     O12       3.47010      .   S
    Zr0    O12       4.38787  1_556   S
    N9     O13       4.46114      .   S
    Zr4    O13       5.44576      .   S
    N9     O14       4.39816      .   S
    Zr0    O14       3.45678  1_556   S
    N9     O15       4.01917      .   S
    Zr4    O15       4.86779  1_655   S
    N9     O16       3.48175      .   S
    Zr2    O16       4.40413  1_655   S
    N9     O17       4.45926      .   S
    Zr5    O17       5.44519      .   S
    N18    O19       4.40465      .   S
    Zr0    O19       3.46344  1_565   S
    N18    O20       4.01972      .   S
    Zr3    O20       4.86904  1_655   S
    N18    O21       3.48242      .   S
    Zr1    O21       4.40523  1_655   S
    N18    O22       4.45867      .   S
    Zr5    O22       5.44494      .   S
    N18    O23       4.41457      .   S
    Zr1    O23       3.47009  1_655   S
    N18    O24       4.01770      .   S
    Zr5    O24       4.86448  1_565   S
    N18    O25       3.47611      .   S
    Zr0    O25       4.39490  1_565   S
    N18    O26       4.46171      .   S
    Zr3    O26       5.44604      .   S
    N27    O28       4.40362      .   S
    Zr1    O28       3.46277  1_556   S
    N27    O29       4.01701      .   S
    Zr4    O29       4.86465  1_565   S
    N27    O30       3.47578      .   S
    Zr2    O30       4.39662  1_565   S
    N27    O31       4.45785      .   S
    Zr3    O31       5.44300      .   S
    N27    O32       4.40559      .   S
    Zr2    O32       3.46404  1_565   S
    N27    O33       4.01606      .   S
    Zr3    O33       4.86201  1_556   S
    N27    O34       3.47511      .   S
    Zr1    O34       4.39423  1_556   S
    N27    O35       4.45818      .   S
    Zr4    O35       5.44312      .   S
