# CIF file generated by openbabel 2.4.90, see http://openbabel.sf.net
data_I
_chemical_name_common ''
_cell_length_a 7.777
_cell_length_b 10.178
_cell_length_c 13.43
_cell_angle_alpha 68.03
_cell_angle_beta 85.139
_cell_angle_gamma 75.683
_space_group_name_H-M_alt 'P 1'
_space_group_name_Hall 'P 1'
loop_
    _symmetry_equiv_pos_as_xyz
    x,y,z
loop_
    _atom_site_label
    _atom_site_type_symbol
    _atom_site_fract_x
    _atom_site_fract_y
    _atom_site_fract_z
    _atom_site_occupancy
    Cd0     Cd   0.85814   0.66063   0.54728   1.000
    Cd1     Cd   0.49999   0.00001   0.50000   1.000
    C2      C    0.15155   0.15141   0.34346   1.000
    C3      C    0.17624   0.63582   0.38428   1.000
    C4      C    0.33536   0.09942   0.68285   1.000
    Cd5     Cd   0.14183   0.33939   0.45272   1.000
    C6      C    0.84844   0.84859   0.65655   1.000
    C7      C    0.82373   0.36419   0.61570   1.000
    C8      C    0.66463   0.90062   0.31714   1.000
    O9      O    0.08832   0.28356   0.29193   1.000
    O10     O    0.20742   0.10731   0.44317   1.000
    O11     O    0.13116   0.60315   0.48297   1.000
    O12     O    0.21542   0.54105   0.33986   1.000
    O13     O    0.42023   0.98870   0.65952   1.000
    O14     O    0.28164   0.22826   0.61645   1.000
    O15     O    0.91167   0.71644   0.70809   1.000
    O16     O    0.79257   0.89269   0.55684   1.000
    O17     O    0.86879   0.39687   0.51702   1.000
    O18     O    0.78456   0.45897   0.66013   1.000
    O19     O    0.57978   0.01136   0.34047   1.000
    O20     O    0.71833   0.77179   0.38355   1.000
    Og21    Og   0.15637   0.11364   0.32766   1.000
    Og22    Og   0.17903   0.68678   0.36171   1.000
    Og23    Og   0.32459   0.08912   0.72186   1.000
    Og24    Og   0.84362   0.88637   0.67235   1.000
    Og25    Og   0.82094   0.31324   0.63828   1.000
    Og26    Og   0.67540   0.91092   0.27813   1.000
loop_
    _geom_bond_atom_site_label_1
    _geom_bond_atom_site_label_2
    _geom_bond_distance
    _geom_bond_site_symmetry_2
    _ccdc_geom_bond_type
    O9     C2        1.25057      .   S
    O9     Cd5       2.51922      .   S
    C8     O19       1.29039  1_565   S
    C8     O20       1.26751      .   S
    O12    C3        1.27813      .   S
    O12    Cd5       2.22343      .   S
    O19    Cd1       2.14793      .   S
    C2     O10       1.31758      .   S
    O20    Cd0       2.28749      .   S
    C3     O11       1.28027      .   S
    O10    Cd1       2.32251      .   S
    Cd5    O17       2.24723  1_455   S
    Cd5    O14       2.28750      .   S
    O11    Cd0       2.24717  1_455   S
    Cd1    O16       2.32257  1_545   S
    Cd1    O13       2.14795  1_545   S
    O17    C7        1.28025      .   S
    Cd0    O18       2.22336      .   S
    Cd0    O15       2.51938      .   S
    O16    C6        1.31759      .   S
    C7     O18       1.27814      .   S
    O14    C4        1.26751      .   S
    C6     O15       1.25055      .   S
    O13    C4        1.29039  1_565   S
    O10    Cd5       2.34004      .   S
    O16    Cd0       2.33986      .   S
    C2     Og21      0.49676      .   S
    C3     Og22      0.49814      .   S
    C4     Og23      0.49826      .   S
    C6     Og24      0.49677      .   S
    C7     Og25      0.49814      .   S
    C8     Og26      0.49826      .   S
