# CIF file generated by openbabel 2.4.90, see http://openbabel.sf.net
data_I
_chemical_name_common ''
_cell_length_a 7.777
_cell_length_b 10.178
_cell_length_c 13.43
_cell_angle_alpha 68.03
_cell_angle_beta 85.139
_cell_angle_gamma 75.683
_space_group_name_H-M_alt 'P 1'
_space_group_name_Hall 'P 1'
loop_
    _symmetry_equiv_pos_as_xyz
    x,y,z
loop_
    _atom_site_label
    _atom_site_type_symbol
    _atom_site_fract_x
    _atom_site_fract_y
    _atom_site_fract_z
    _atom_site_occupancy
    C0      C    0.14183   0.33939   0.45272   1.000
    C1      C    0.85814   0.66063   0.54728   1.000
    C2      C    0.49999   0.00001   0.50000   1.000
    C3      C    0.15143   0.86503   0.44868   1.000
    C4      C    0.22053   0.74212   0.17290   1.000
    C5      C    0.18389   0.18878   0.13583   1.000
    C6      C    0.39657   0.78986   0.04129   1.000
    C7      C    0.44452   0.84393   0.84696   1.000
    C8      C    0.15597   0.28681   0.77798   1.000
    C9      C    0.09489   0.23181   0.97153   1.000
    C10     C    0.84855   0.13498   0.55131   1.000
    C11     C    0.77945   0.25791   0.82709   1.000
    C12     C    0.81609   0.81124   0.86417   1.000
    C13     C    0.60343   0.21018   0.95871   1.000
    C14     C    0.55548   0.15610   0.15304   1.000
    C15     C    0.84401   0.71323   0.22202   1.000
    C16     C    0.90510   0.76822   0.02847   1.000
    C17     C    0.16599   0.03810   0.29607   1.000
    C18     C    0.16665   0.89419   0.36233   1.000
    C19     C    0.18461   0.78869   0.31657   1.000
    C20     C    0.20723   0.82695   0.20567   1.000
    C21     C    0.20860   0.97034   0.13794   1.000
    C22     C    0.18353   0.07601   0.18474   1.000
    C23     C    0.23967   0.00601   0.02147   1.000
    C24     C    0.33875   0.89807   0.98402   1.000
    C25     C    0.36853   0.92824   0.87520   1.000
    C26     C    0.30304   0.06853   0.79988   1.000
    C27     C    0.20689   0.17777   0.83623   1.000
    C28     C    0.17466   0.14645   0.94534   1.000
    C29     C    0.15155   0.15141   0.34346   1.000
    C30     C    0.17624   0.63582   0.38428   1.000
    C31     C    0.33536   0.09942   0.68285   1.000
    C32     C    0.83399   0.96192   0.70394   1.000
    C33     C    0.83332   0.10583   0.63767   1.000
    C34     C    0.81536   0.21133   0.68342   1.000
    C35     C    0.79274   0.17307   0.79432   1.000
    C36     C    0.79137   0.02969   0.86206   1.000
    C37     C    0.81644   0.92401   0.81526   1.000
    C38     C    0.76030   0.99401   0.97852   1.000
    C39     C    0.66124   0.10195   0.01598   1.000
    C40     C    0.63146   0.07179   0.12480   1.000
    C41     C    0.69694   0.93151   0.20012   1.000
    C42     C    0.79310   0.82226   0.16377   1.000
    C43     C    0.82532   0.85358   0.05466   1.000
    C44     C    0.84844   0.84859   0.65655   1.000
    C45     C    0.82373   0.36419   0.61570   1.000
    C46     C    0.66463   0.90062   0.31714   1.000
    C47     C    0.08832   0.28356   0.29193   1.000
    C48     C    0.20742   0.10731   0.44317   1.000
    C49     C    0.13116   0.60315   0.48297   1.000
    C50     C    0.21542   0.54105   0.33986   1.000
    C51     C    0.42023   0.98870   0.65952   1.000
    C52     C    0.28164   0.22826   0.61645   1.000
    C53     C    0.91167   0.71644   0.70809   1.000
    C54     C    0.79257   0.89269   0.55684   1.000
    C55     C    0.86879   0.39687   0.51702   1.000
    C56     C    0.78456   0.45897   0.66013   1.000
    C57     C    0.57978   0.01136   0.34047   1.000
    C58     C    0.71833   0.77179   0.38355   1.000
    O59     O    0.64635   0.08687   0.07039   1.000
    O60     O    0.63234   0.15606   0.98735   1.000
    O61     O    0.71077   0.04798   0.99725   1.000
    O62     O    0.22413   0.98818   0.07971   1.000
    O63     O    0.20716   0.07623   0.98341   1.000
    O64     O    0.28921   0.95204   0.00274   1.000
    O65     O    0.86521   0.81090   0.04157   1.000
    O66     O    0.36766   0.84397   0.01265   1.000
    O67     O    0.80921   0.83792   0.10921   1.000
    O68     O    0.79281   0.92380   0.01659   1.000
    O69     O    0.59347   0.11394   0.13892   1.000
    O70     O    0.66420   0.00165   0.16246   1.000
    O71     O    0.18371   0.13239   0.16029   1.000
    O72     O    0.19607   0.02318   0.16134   1.000
    O73     O    0.20792   0.89865   0.17180   1.000
    O74     O    0.74502   0.87689   0.18194   1.000
    O75     O    0.81856   0.76775   0.19289   1.000
    O76     O    0.21388   0.78454   0.18928   1.000
    O77     O    0.17476   0.05705   0.24040   1.000
    O78     O    0.68079   0.91607   0.25863   1.000
    O79     O    0.19592   0.80782   0.26112   1.000
    O80     O    0.11993   0.21749   0.31769   1.000
    O81     O    0.11507   0.31148   0.37232   1.000
    O82     O    0.15877   0.09475   0.31976   1.000
    O83     O    0.16632   0.96614   0.32920   1.000
    O84     O    0.17563   0.84144   0.33945   1.000
    O85     O    0.18042   0.71225   0.35043   1.000
    O86     O    0.62221   0.95599   0.32880   1.000
    O87     O    0.69148   0.83621   0.35035   1.000
    O88     O    0.19583   0.58844   0.36207   1.000
    O89     O    0.17863   0.44022   0.39629   1.000
    O90     O    0.53989   0.00568   0.42023   1.000
    O91     O    0.17949   0.12936   0.39331   1.000
    O92     O    0.15904   0.87961   0.40551   1.000
    O93     O    0.78824   0.71621   0.46542   1.000
    O94     O    0.15370   0.61949   0.43362   1.000
    O95     O    0.35371   0.05366   0.47158   1.000
    O96     O    0.00531   0.36813   0.48487   1.000
    O97     O    0.21174   0.28383   0.53458   1.000
    O98     O    0.99465   0.63189   0.51512   1.000
    O99     O    0.64628   0.94635   0.52842   1.000
    O100    O    0.46011   0.99436   0.57976   1.000
    O101    O    0.84626   0.38053   0.56636   1.000
    O102    O    0.82135   0.55980   0.60370   1.000
    O103    O    0.88491   0.68854   0.62769   1.000
    O104    O    0.84093   0.12041   0.59449   1.000
    O105    O    0.82050   0.87064   0.60670   1.000
    O106    O    0.80415   0.41158   0.63792   1.000
    O107    O    0.81954   0.28776   0.64956   1.000
    O108    O    0.30850   0.16384   0.64965   1.000
    O109    O    0.82434   0.15858   0.66055   1.000
    O110    O    0.83365   0.03387   0.67080   1.000
    O111    O    0.84121   0.90525   0.68025   1.000
    O112    O    0.88006   0.78252   0.68232   1.000
    O113    O    0.37780   0.04406   0.67119   1.000
    O114    O    0.31920   0.08397   0.74137   1.000
    O115    O    0.80405   0.19220   0.73887   1.000
    O116    O    0.82522   0.94296   0.75960   1.000
    O117    O    0.18143   0.23229   0.80711   1.000
    O118    O    0.78610   0.21549   0.81071   1.000
    O119    O    0.79206   0.10138   0.82819   1.000
    O120    O    0.25496   0.12315   0.81806   1.000
    O121    O    0.33578   0.99838   0.83754   1.000
    O122    O    0.80391   0.97685   0.83866   1.000
    O123    O    0.81627   0.86762   0.83972   1.000
    O124    O    0.19077   0.16211   0.89079   1.000
    O125    O    0.40652   0.88608   0.86108   1.000
    O126    O    0.77584   0.01185   0.92029   1.000
    O127    O    0.35364   0.91316   0.92961   1.000
    O128    O    0.13478   0.18913   0.95843   1.000
    O129    O    0.17463   0.22335   0.44794   1.000
    O130    O    0.82535   0.77666   0.55206   1.000
loop_
    _geom_bond_atom_site_label_1
    _geom_bond_atom_site_label_2
    _geom_bond_distance
    _geom_bond_site_symmetry_2
    _ccdc_geom_bond_type
    C39    O59       0.69387      .   S
    C40    O59       0.69387      .   S
    C39    O60       0.54469  1_554   S
    C13    O60       0.54469      .   S
    C39    O61       0.70407  1_554   S
    C38    O61       0.70407  1_565   S
    C23    O62       0.74011  1_545   S
    C21    O62       0.74011      .   S
    C23    O63       0.70370  1_554   S
    C28    O63       0.70370      .   S
    C23    O64       0.70407  1_545   S
    C24    O64       0.70407  1_556   S
    C16    O65       0.54508      .   S
    C43    O65       0.54508      .   S
    C6     O66       0.54468      .   S
    C24    O66       0.54468  1_556   S
    C43    O67       0.69630      .   S
    C42    O67       0.69630      .   S
    C43    O68       0.70369      .   S
    C38    O68       0.70369  1_556   S
    C40    O69       0.54405      .   S
    C14    O69       0.54405      .   S
    C40    O70       0.70144      .   S
    C41    O70       0.70144  1_565   S
    C5     O71       0.54450      .   S
    C22    O71       0.54450      .   S
    C21    O72       0.70201  1_565   S
    C22    O72       0.70201      .   S
    C21    O73       0.70180      .   S
    C20    O73       0.70180      .   S
    C42    O74       0.70126      .   S
    C41    O74       0.70126      .   S
    C42    O75       0.54450      .   S
    C15    O75       0.54450      .   S
    C4     O76       0.54370      .   S
    C20    O76       0.54370      .   S
    C22    O77       0.70046      .   S
    C17    O77       0.70046      .   S
    C41    O78       0.74739      .   S
    C46    O78       0.74739      .   S
    C20    O79       0.69935      .   S
    C19    O79       0.69935      .   S
    C47    O80       0.62528      .   S
    C29    O80       0.62528      .   S
    C47    O81       1.25961      .   S
    C0     O81       1.25961      .   S
    C17    O82       0.74515      .   S
    C29    O82       0.74515      .   S
    C17    O83       0.69983  1_545   S
    C18    O83       0.69983      .   S
    C19    O84       0.69915      .   S
    C18    O84       0.69915      .   S
    C19    O85       0.74721      .   S
    C30    O85       0.74721      .   S
    C46    O86       0.64520      .   S
    C57    O86       0.64520  1_545   S
    C46    O87       0.63375      .   S
    C58    O87       0.63375      .   S
    C50    O88       0.63906      .   S
    C30    O88       0.63906      .   S
    C50    O89       1.11171      .   S
    C0     O89       1.11171      .   S
    C57    O90       1.07397      .   S
    C2     O90       1.07397      .   S
    C29    O91       0.65879      .   S
    C48    O91       0.65879      .   S
    C18    O92       0.54400      .   S
    C3     O92       0.54400      .   S
    C58    O93       1.14375      .   S
    C1     O93       1.14375      .   S
    C30    O94       0.64013      .   S
    C49    O94       0.64013      .   S
    C48    O95       1.16126      .   S
    C2     O95       1.16126      .   S
    C0     O96       1.12361      .   S
    C55    O96       1.12361  1_655   S
    C0     O97       1.14375      .   S
    C52    O97       1.14375      .   S
    C49    O98       1.12358  1_455   S
    C1     O98       1.12358      .   S
    C2     O99       1.16129  1_545   S
    C54    O99       1.16129      .   S
    C2     O100      1.07398  1_545   S
    C51    O100      1.07398      .   S
    C55    O101      0.64013      .   S
    C45    O101      0.64013      .   S
    C1     O102      1.11168      .   S
    C56    O102      1.11168      .   S
    C1     O103      1.25969      .   S
    C53    O103      1.25969      .   S
    C10    O104      0.54399      .   S
    C33    O104      0.54399      .   S
    C54    O105      0.65880      .   S
    C44    O105      0.65880      .   S
    C45    O106      0.63907      .   S
    C56    O106      0.63907      .   S
    C45    O107      0.74721      .   S
    C34    O107      0.74721      .   S
    C52    O108      0.63375      .   S
    C31    O108      0.63375      .   S
    C33    O109      0.69915      .   S
    C34    O109      0.69915      .   S
    C33    O110      0.69987      .   S
    C32    O110      0.69987  1_565   S
    C44    O111      0.74515      .   S
    C32    O111      0.74515      .   S
    C44    O112      0.62527      .   S
    C53    O112      0.62527      .   S
    C51    O113      0.64520  1_565   S
    C31    O113      0.64520      .   S
    C31    O114      0.74740      .   S
    C26    O114      0.74740      .   S
    C34    O115      0.69934      .   S
    C35    O115      0.69934      .   S
    C32    O116      0.70046      .   S
    C37    O116      0.70046      .   S
    C8     O117      0.54451      .   S
    C27    O117      0.54451      .   S
    C35    O118      0.54370      .   S
    C11    O118      0.54370      .   S
    C35    O119      0.70179      .   S
    C36    O119      0.70179      .   S
    C26    O120      0.70126      .   S
    C27    O120      0.70126      .   S
    C26    O121      0.70149  1_545   S
    C25    O121      0.70149      .   S
    C37    O122      0.70201      .   S
    C36    O122      0.70201  1_545   S
    C37    O123      0.54451      .   S
    C12    O123      0.54451      .   S
    C27    O124      0.69630      .   S
    C28    O124      0.69630      .   S
    C7     O125      0.54405      .   S
    C25    O125      0.54405      .   S
    C36    O126      0.74011      .   S
    C38    O126      0.74011  1_565   S
    C25    O127      0.69387      .   S
    C24    O127      0.69387      .   S
    C28    O128      0.54507      .   S
    C9     O128      0.54507      .   S
    C48    O129      1.17002      .   S
    C0     O129      1.17002      .   S
    C54    O130      1.16993      .   S
    C1     O130      1.16993      .   S
