# CIF file generated by openbabel 2.4.90, see http://openbabel.sf.net
data_I
_chemical_name_common ''
_cell_length_a 7.777
_cell_length_b 10.178
_cell_length_c 13.43
_cell_angle_alpha 68.03
_cell_angle_beta 85.139
_cell_angle_gamma 75.683
_space_group_name_H-M_alt 'P 1'
_space_group_name_Hall 'P 1'
loop_
    _symmetry_equiv_pos_as_xyz
    x,y,z
loop_
    _atom_site_label
    _atom_site_type_symbol
    _atom_site_fract_x
    _atom_site_fract_y
    _atom_site_fract_z
    _atom_site_occupancy
    Zr0     Zr   0.14183   0.33939   0.45272   1.000
    Zr1     Zr   0.85814   0.66063   0.54728   1.000
    Zr2     Zr   0.49999   0.00001   0.50000   1.000
    Zr3     Zr   0.15155   0.15141   0.34346   1.000
    Zr4     Zr   0.17624   0.63582   0.38428   1.000
    Zr5     Zr   0.33536   0.09942   0.68285   1.000
    Zr6     Zr   0.84844   0.84859   0.65655   1.000
    Zr7     Zr   0.82373   0.36419   0.61570   1.000
    Zr8     Zr   0.66463   0.90062   0.31714   1.000
    Zr9     Zr   0.08832   0.28356   0.29193   1.000
    Zr10    Zr   0.20742   0.10731   0.44317   1.000
    Zr11    Zr   0.13116   0.60315   0.48297   1.000
    Zr12    Zr   0.21542   0.54105   0.33986   1.000
    Zr13    Zr   0.42023   0.98870   0.65952   1.000
    Zr14    Zr   0.28164   0.22826   0.61645   1.000
    Zr15    Zr   0.91167   0.71644   0.70809   1.000
    Zr16    Zr   0.79257   0.89269   0.55684   1.000
    Zr17    Zr   0.86879   0.39687   0.51702   1.000
    Zr18    Zr   0.78456   0.45897   0.66013   1.000
    Zr19    Zr   0.57978   0.01136   0.34047   1.000
    Zr20    Zr   0.71833   0.77179   0.38355   1.000
    O21     O    0.11993   0.21749   0.31769   1.000
    O22     O    0.11507   0.31148   0.37232   1.000
    O23     O    0.62221   0.95599   0.32880   1.000
    O24     O    0.69148   0.83621   0.35035   1.000
    O25     O    0.19583   0.58844   0.36207   1.000
    O26     O    0.17863   0.44022   0.39629   1.000
    O27     O    0.53989   0.00568   0.42023   1.000
    O28     O    0.17949   0.12936   0.39331   1.000
    O29     O    0.78824   0.71621   0.46542   1.000
    O30     O    0.15370   0.61949   0.43362   1.000
    O31     O    0.35371   0.05366   0.47158   1.000
    O32     O    0.00531   0.36813   0.48487   1.000
    O33     O    0.21174   0.28383   0.53458   1.000
    O34     O    0.99465   0.63189   0.51512   1.000
    O35     O    0.64628   0.94635   0.52842   1.000
    O36     O    0.46011   0.99436   0.57976   1.000
    O37     O    0.84626   0.38053   0.56636   1.000
    O38     O    0.82135   0.55980   0.60370   1.000
    O39     O    0.88491   0.68854   0.62769   1.000
    O40     O    0.82050   0.87064   0.60670   1.000
    O41     O    0.80415   0.41158   0.63792   1.000
    O42     O    0.30850   0.16384   0.64965   1.000
    O43     O    0.88006   0.78252   0.68232   1.000
    O44     O    0.37780   0.04406   0.67119   1.000
    O45     O    0.17463   0.22335   0.44794   1.000
    O46     O    0.82535   0.77666   0.55206   1.000
    N47     N    0.76862   0.01225   0.92839   1.000
    O48     O    0.72470   0.96416   0.09351   1.000
    O49     O    0.80491   0.95875   0.80432   1.000
    O50     O    0.79408   0.15001   0.78898   1.000
    N51     N    0.23137   0.98777   0.07161   1.000
    O52     O    0.27528   0.03587   0.90649   1.000
    O53     O    0.20590   0.85001   0.21102   1.000
    O54     O    0.19507   0.04126   0.19569   1.000
loop_
    _geom_bond_atom_site_label_1
    _geom_bond_atom_site_label_2
    _geom_bond_distance
    _geom_bond_site_symmetry_2
    _ccdc_geom_bond_type
    Zr9    O21       0.62528      .   S
    Zr3    O21       0.62528      .   S
    Zr9    O22       1.25961      .   S
    Zr0    O22       1.25961      .   S
    Zr8    O23       0.64520      .   S
    Zr19   O23       0.64520  1_545   S
    Zr8    O24       0.63375      .   S
    Zr20   O24       0.63375      .   S
    Zr12   O25       0.63906      .   S
    Zr4    O25       0.63906      .   S
    Zr12   O26       1.11171      .   S
    Zr0    O26       1.11171      .   S
    Zr19   O27       1.07397      .   S
    Zr2    O27       1.07397      .   S
    Zr3    O28       0.65879      .   S
    Zr10   O28       0.65879      .   S
    Zr20   O29       1.14375      .   S
    Zr1    O29       1.14375      .   S
    Zr4    O30       0.64013      .   S
    Zr11   O30       0.64013      .   S
    Zr10   O31       1.16126      .   S
    Zr2    O31       1.16126      .   S
    Zr0    O32       1.12361      .   S
    Zr17   O32       1.12361  1_655   S
    Zr0    O33       1.14375      .   S
    Zr14   O33       1.14375      .   S
    Zr11   O34       1.12358  1_455   S
    Zr1    O34       1.12358      .   S
    Zr2    O35       1.16129  1_545   S
    Zr16   O35       1.16129      .   S
    Zr2    O36       1.07398  1_545   S
    Zr13   O36       1.07398      .   S
    Zr17   O37       0.64013      .   S
    Zr7    O37       0.64013      .   S
    Zr1    O38       1.11168      .   S
    Zr18   O38       1.11168      .   S
    Zr1    O39       1.25969      .   S
    Zr15   O39       1.25969      .   S
    Zr16   O40       0.65880      .   S
    Zr6    O40       0.65880      .   S
    Zr7    O41       0.63907      .   S
    Zr18   O41       0.63907      .   S
    Zr14   O42       0.63375      .   S
    Zr5    O42       0.63375      .   S
    Zr6    O43       0.62527      .   S
    Zr15   O43       0.62527      .   S
    Zr13   O44       0.64520  1_565   S
    Zr5    O44       0.64520      .   S
    Zr10   O45       1.17002      .   S
    Zr0    O45       1.17002      .   S
    Zr16   O46       1.16993      .   S
    Zr1    O46       1.16993      .   S
    N47    O48       2.10144  1_546   S
    Zr8    O48       2.84871      .   S
    N47    O49       1.91724  1_545   S
    Zr6    O49       2.58324      .   S
    N47    O50       1.90283      .   S
    Zr7    O50       2.56564      .   S
    N51    O52       2.10144  1_564   S
    Zr5    O52       2.84872      .   S
    N51    O53       1.90282      .   S
    Zr4    O53       2.56562      .   S
    N51    O54       1.91724  1_565   S
    Zr3    O54       2.58324      .   S
