# CIF file generated by openbabel 2.4.90, see http://openbabel.sf.net
data_I
_chemical_name_common ''
_cell_length_a 22.684
_cell_length_b 12.99
_cell_length_c 12.986
_cell_angle_alpha 117.495
_cell_angle_beta 94.955
_cell_angle_gamma 85.039
_space_group_name_H-M_alt 'P 1'
_space_group_name_Hall 'P 1'
loop_
    _symmetry_equiv_pos_as_xyz
    x,y,z
loop_
    _atom_site_label
    _atom_site_type_symbol
    _atom_site_fract_x
    _atom_site_fract_y
    _atom_site_fract_z
    _atom_site_occupancy
    Zn0     Zn   0.93509   0.49516   0.97368   1.000
    Zn1     Zn   0.31492   0.97366   0.49510   1.000
    Zn2     Zn   0.81492   0.97366   0.49510   1.000
    Zn3     Zn   0.06492   0.50484   0.02633   1.000
    Zn4     Zn   0.56492   0.50484   0.02633   1.000
    Zn5     Zn   0.18509   0.02634   0.50485   1.000
    Zn6     Zn   0.68509   0.02634   0.50485   1.000
    Zn7     Zn   0.43508   0.49516   0.97368   1.000
loop_
    _geom_bond_atom_site_label_1
    _geom_bond_atom_site_label_2
    _geom_bond_distance
    _geom_bond_site_symmetry_2
    _ccdc_geom_bond_type
    Zn7    Zn4       2.96550  1_556   S
    Zn0    Zn3       2.96541  1_656   S
    Zn1    Zn5       2.96535  1_565   S
    Zn2    Zn6       2.96537  1_565   S
