# CIF file generated by openbabel 2.4.90, see http://openbabel.sf.net
data_I
_chemical_name_common ''
_cell_length_a 22.684
_cell_length_b 12.99
_cell_length_c 12.986
_cell_angle_alpha 117.495
_cell_angle_beta 94.955
_cell_angle_gamma 85.039
_space_group_name_H-M_alt 'P 1'
_space_group_name_Hall 'P 1'
loop_
    _symmetry_equiv_pos_as_xyz
    x,y,z
loop_
    _atom_site_label
    _atom_site_type_symbol
    _atom_site_fract_x
    _atom_site_fract_y
    _atom_site_fract_z
    _atom_site_occupancy
    N0      N    0.48424   0.80139   0.63373   1.000
    N1      N    0.98424   0.80139   0.63373   1.000
    N2      N    0.26576   0.63373   0.80141   1.000
    N3      N    0.76576   0.63373   0.80141   1.000
    N4      N    0.51576   0.19861   0.36626   1.000
    N5      N    0.01576   0.19861   0.36624   1.000
    N6      N    0.73425   0.36627   0.19859   1.000
    N7      N    0.23425   0.36627   0.19859   1.000
    Zr8     Zr   0.50000   0.50000   0.00001   1.000
    O9      O    0.58576   0.47051   0.06525   1.000
    O10     O    0.41424   0.52949   0.93476   1.000
    Zr11    Zr   0.75000   1.00000   0.49997   1.000
    O12     O    0.83576   0.93475   0.52948   1.000
    O13     O    0.66425   0.06525   0.47048   1.000
    Zr14    Zr   0.25000   1.00000   0.49997   1.000
    O15     O    0.16425   0.06525   0.47048   1.000
    O16     O    0.33576   0.93475   0.52948   1.000
    Zr17    Zr   0.00000   0.50000   0.00000   1.000
    O18     O    0.91425   0.52949   0.93476   1.000
    O19     O    0.08576   0.47051   0.06524   1.000
    O20     O    0.00465   0.40890   0.08446   1.000
    O21     O    0.99535   0.59110   0.91554   1.000
    O22     O    0.74535   0.08446   0.40888   1.000
    O23     O    0.50465   0.40890   0.08447   1.000
    O24     O    0.25465   0.91554   0.59109   1.000
    O25     O    0.24535   0.08446   0.40888   1.000
    O26     O    0.75465   0.91554   0.59109   1.000
    O27     O    0.49535   0.59110   0.91554   1.000
loop_
    _geom_bond_atom_site_label_1
    _geom_bond_atom_site_label_2
    _geom_bond_distance
    _geom_bond_site_symmetry_2
    _ccdc_geom_bond_type
    Zr8    O9        2.12957      .   S
    N6     O9        4.06766      .   S
    Zr8    O10       2.12959  1_554   S
    N2     O10       4.06771      .   S
    Zr11   O12       2.12962      .   S
    N1     O12       4.06785      .   S
    Zr11   O13       2.12958  1_565   S
    N4     O13       4.06769      .   S
    Zr14   O15       2.12959  1_565   S
    N5     O15       4.06776      .   S
    Zr14   O16       2.12963      .   S
    N0     O16       4.06788      .   S
    Zr17   O18       2.12957  1_454   S
    N3     O18       4.06770      .   S
    Zr17   O19       2.12951      .   S
    N7     O19       4.06769      .   S
    N5     O20       5.46499      .   S
    Zr17   O20       1.94194      .   S
    N1     O21       5.46534      .   S
    Zr17   O21       1.94205  1_454   S
    Zr11   O22       1.94195  1_565   S
    N6     O22       5.46567      .   S
    N4     O23       5.46521      .   S
    Zr8    O23       1.94200      .   S
    N2     O24       5.46597      .   S
    Zr14   O24       1.94216      .   S
    N7     O25       5.46567      .   S
    Zr14   O25       1.94195  1_565   S
    N3     O26       5.46595      .   S
    Zr11   O26       1.94215      .   S
    N0     O27       5.46534      .   S
    Zr8    O27       1.94205  1_554   S
