# CIF file generated by openbabel 2.4.90, see http://openbabel.sf.net
data_I
_chemical_name_common ''
_cell_length_a 22.684
_cell_length_b 12.99
_cell_length_c 12.986
_cell_angle_alpha 117.495
_cell_angle_beta 94.955
_cell_angle_gamma 85.039
_space_group_name_H-M_alt 'P 1'
_space_group_name_Hall 'P 1'
loop_
    _symmetry_equiv_pos_as_xyz
    x,y,z
loop_
    _atom_site_label
    _atom_site_type_symbol
    _atom_site_fract_x
    _atom_site_fract_y
    _atom_site_fract_z
    _atom_site_occupancy
    Zr0     Zr   0.43508   0.49516   0.97368   1.000
    Zr1     Zr   0.93509   0.49516   0.97368   1.000
    Zr2     Zr   0.31492   0.97366   0.49510   1.000
    Zr3     Zr   0.81492   0.97366   0.49510   1.000
    Zr4     Zr   0.06492   0.50484   0.02633   1.000
    Zr5     Zr   0.56492   0.50484   0.02633   1.000
    Zr6     Zr   0.18509   0.02634   0.50485   1.000
    Zr7     Zr   0.68509   0.02634   0.50485   1.000
    O8      O    0.50000   0.50000   0.00000   1.000
    O9      O    0.00000   0.50000   0.00000   1.000
    O10     O    0.25000   1.00000   0.49997   1.000
    O11     O    0.75000   1.00000   0.49997   1.000
    N12     N    0.48424   0.80139   0.63373   1.000
    O13     O    0.42151   0.86950   0.55898   1.000
    O14     O    0.52334   0.68517   0.81655   1.000
    O15     O    0.46609   0.67881   0.79255   1.000
    O16     O    0.51539   0.68509   0.86861   1.000
    O17     O    0.45799   0.67971   0.84657   1.000
    N18     N    0.98424   0.80139   0.63373   1.000
    O19     O    0.92152   0.86950   0.55898   1.000
    O20     O    0.02334   0.68517   0.81655   1.000
    O21     O    0.96609   0.67881   0.79255   1.000
    O22     O    0.01539   0.68509   0.86861   1.000
    O23     O    0.95799   0.67971   0.84657   1.000
    N24     N    0.26576   0.63373   0.80141   1.000
    O25     O    0.32849   0.55898   0.86951   1.000
    O26     O    0.22666   0.81658   0.68521   1.000
    O27     O    0.28391   0.79256   0.67882   1.000
    O28     O    0.23461   0.86862   0.68510   1.000
    O29     O    0.29201   0.84656   0.67970   1.000
    N30     N    0.76576   0.63373   0.80141   1.000
    O31     O    0.79201   0.84656   0.67970   1.000
    O32     O    0.82849   0.55898   0.86951   1.000
    O33     O    0.72666   0.81658   0.68521   1.000
    O34     O    0.78391   0.79256   0.67882   1.000
    O35     O    0.73462   0.86862   0.68510   1.000
    N36     N    0.51576   0.19861   0.36626   1.000
    O37     O    0.47666   0.31483   0.18345   1.000
    O38     O    0.57849   0.13050   0.44099   1.000
    O39     O    0.53392   0.32119   0.20745   1.000
    O40     O    0.48461   0.31491   0.13139   1.000
    O41     O    0.54201   0.32028   0.15344   1.000
    N42     N    0.01576   0.19861   0.36624   1.000
    O43     O    0.97666   0.31483   0.18344   1.000
    O44     O    0.07849   0.13050   0.44098   1.000
    O45     O    0.03392   0.32119   0.20744   1.000
    O46     O    0.98462   0.31491   0.13138   1.000
    O47     O    0.04201   0.32028   0.15342   1.000
    N48     N    0.73425   0.36627   0.19859   1.000
    O49     O    0.67152   0.44101   0.13049   1.000
    O50     O    0.77335   0.18342   0.31478   1.000
    O51     O    0.71609   0.20744   0.32117   1.000
    O52     O    0.76539   0.13138   0.31489   1.000
    O53     O    0.70800   0.15344   0.32028   1.000
    N54     N    0.23425   0.36627   0.19859   1.000
    O55     O    0.17152   0.44101   0.13048   1.000
    O56     O    0.27334   0.18342   0.31478   1.000
    O57     O    0.21609   0.20744   0.32117   1.000
    O58     O    0.26539   0.13138   0.31489   1.000
    O59     O    0.20799   0.15344   0.32028   1.000
loop_
    _geom_bond_atom_site_label_1
    _geom_bond_atom_site_label_2
    _geom_bond_distance
    _geom_bond_site_symmetry_2
    _ccdc_geom_bond_type
    Zr0    O8        1.48275  1_556   S
    Zr5    O8        1.48275      .   S
    Zr1    O9        1.48270  1_656   S
    Zr4    O9        1.48270      .   S
    Zr2    O10       1.48268      .   S
    Zr6    O10       1.48268  1_545   S
    Zr3    O11       1.48269      .   S
    Zr7    O11       1.48269  1_545   S
    N12    O13       2.02152      .   S
    Zr2    O13       2.91375      .   S
    N12    O14       3.37878      .   S
    Zr5    O14       4.34330  1_554   S
    N12    O15       3.20180      .   S
    Zr0    O15       4.18030      .   S
    N12    O16       3.97278      .   S
    Zr5    O16       3.80983  1_554   S
    N12    O17       3.86942      .   S
    Zr0    O17       3.57209      .   S
    N18    O19       2.02150      .   S
    Zr3    O19       2.91373      .   S
    N18    O20       3.37881  1_655   S
    Zr4    O20       4.34326  1_554   S
    N18    O21       3.20180      .   S
    Zr1    O21       4.18029      .   S
    N18    O22       3.97277  1_655   S
    Zr4    O22       3.80983  1_554   S
    N18    O23       3.86941      .   S
    Zr1    O23       3.57209      .   S
    N24    O25       2.02144      .   S
    Zr0    O25       2.91346      .   S
    N24    O26       3.37920      .   S
    Zr6    O26       4.34352  1_545   S
    N24    O27       3.20217      .   S
    Zr2    O27       4.18075      .   S
    N24    O28       3.97341      .   S
    Zr6    O28       3.80983  1_545   S
    N24    O29       3.87010      .   S
    Zr2    O29       3.57223      .   S
    N30    O31       3.87009      .   S
    Zr3    O31       3.57222      .   S
    N30    O32       2.02145      .   S
    Zr1    O32       2.91346      .   S
    N30    O33       3.37919      .   S
    Zr7    O33       4.34350  1_545   S
    N30    O34       3.20216      .   S
    Zr3    O34       4.18074      .   S
    N30    O35       3.97339      .   S
    Zr7    O35       3.80981  1_545   S
    N36    O37       3.37875      .   S
    Zr0    O37       4.34315  1_556   S
    N36    O38       2.02136      .   S
    Zr7    O38       2.91361      .   S
    N36    O39       3.20170      .   S
    Zr5    O39       4.18022      .   S
    N36    O40       3.97268      .   S
    Zr0    O40       3.80975  1_556   S
    N36    O41       3.86933      .   S
    Zr5    O41       3.57201      .   S
    N42    O43       3.37858  1_455   S
    Zr1    O43       4.34303  1_556   S
    N42    O44       2.02144      .   S
    Zr6    O44       2.91366      .   S
    N42    O45       3.20156      .   S
    Zr4    O45       4.18007      .   S
    N42    O46       3.97253  1_455   S
    Zr1    O46       3.80962  1_556   S
    N42    O47       3.86917      .   S
    Zr4    O47       3.57188      .   S
    N48    O49       2.02140      .   S
    Zr5    O49       2.91343      .   S
    N48    O50       3.37909      .   S
    Zr3    O50       4.34313  1_565   S
    N48    O51       3.20208      .   S
    Zr7    O51       4.18034      .   S
    N48    O52       3.97332      .   S
    Zr3    O52       3.80940  1_565   S
    N48    O53       3.86996      .   S
    Zr7    O53       3.57185      .   S
    N54    O55       2.02151      .   S
    Zr4    O55       2.91332      .   S
    N54    O56       3.37910      .   S
    Zr2    O56       4.34313  1_565   S
    N54    O57       3.20207      .   S
    Zr6    O57       4.18034      .   S
    N54    O58       3.97333      .   S
    Zr2    O58       3.80940  1_565   S
    N54    O59       3.86998      .   S
    Zr6    O59       3.57182      .   S
