# CIF file generated by openbabel 2.4.90, see http://openbabel.sf.net
data_I
_chemical_name_common ''
_cell_length_a 22.684
_cell_length_b 12.99
_cell_length_c 12.986
_cell_angle_alpha 117.495
_cell_angle_beta 94.955
_cell_angle_gamma 85.039
_space_group_name_H-M_alt 'P 1'
_space_group_name_Hall 'P 1'
loop_
    _symmetry_equiv_pos_as_xyz
    x,y,z
loop_
    _atom_site_label
    _atom_site_type_symbol
    _atom_site_fract_x
    _atom_site_fract_y
    _atom_site_fract_z
    _atom_site_occupancy
    N0      N    0.48424   0.80139   0.63373   1.000
    N1      N    0.98424   0.80139   0.63373   1.000
    N2      N    0.26576   0.63373   0.80141   1.000
    N3      N    0.76576   0.63373   0.80141   1.000
    N4      N    0.51576   0.19861   0.36626   1.000
    N5      N    0.01576   0.19861   0.36624   1.000
    N6      N    0.73425   0.36627   0.19859   1.000
    N7      N    0.23425   0.36627   0.19859   1.000
    Zr8     Zr   0.50000   0.50000   0.00001   1.000
    O9      O    0.58576   0.47051   0.06525   1.000
    O10     O    0.51696   0.41059   0.10373   1.000
    O11     O    0.52101   0.41014   0.07672   1.000
    O12     O    0.50770   0.59254   0.93431   1.000
    O13     O    0.51167   0.59258   0.90828   1.000
    O14     O    0.49231   0.40745   0.06570   1.000
    O15     O    0.48833   0.40741   0.09173   1.000
    O16     O    0.41424   0.52949   0.93476   1.000
    O17     O    0.47900   0.58986   0.92329   1.000
    O18     O    0.48304   0.58940   0.89628   1.000
    Zr19    Zr   0.75000   1.00000   0.49997   1.000
    O20     O    0.76168   0.09171   0.40738   1.000
    O21     O    0.83576   0.93475   0.52948   1.000
    O22     O    0.75770   0.06569   0.40743   1.000
    O23     O    0.76696   0.89628   0.58940   1.000
    O24     O    0.77101   0.92328   0.58984   1.000
    O25     O    0.73305   0.10372   0.41057   1.000
    O26     O    0.72900   0.07672   0.41013   1.000
    O27     O    0.66425   0.06525   0.47048   1.000
    O28     O    0.73833   0.90829   0.59259   1.000
    O29     O    0.74231   0.93431   0.59254   1.000
    Zr30    Zr   0.25000   1.00000   0.49997   1.000
    O31     O    0.16425   0.06525   0.47048   1.000
    O32     O    0.23305   0.10372   0.41057   1.000
    O33     O    0.24231   0.93431   0.59254   1.000
    O34     O    0.23833   0.90829   0.59259   1.000
    O35     O    0.22900   0.07672   0.41013   1.000
    O36     O    0.26167   0.09171   0.40738   1.000
    O37     O    0.25769   0.06569   0.40743   1.000
    O38     O    0.26696   0.89628   0.58940   1.000
    O39     O    0.27101   0.92328   0.58984   1.000
    O40     O    0.33576   0.93475   0.52948   1.000
    Zr41    Zr   0.00000   0.50000   0.00000   1.000
    O42     O    0.99231   0.40745   0.06569   1.000
    O43     O    0.98833   0.40742   0.09172   1.000
    O44     O    0.98304   0.58940   0.89628   1.000
    O45     O    0.97900   0.58986   0.92329   1.000
    O46     O    0.91425   0.52949   0.93476   1.000
    O47     O    0.01696   0.41059   0.10372   1.000
    O48     O    0.01167   0.59258   0.90828   1.000
    O49     O    0.00770   0.59254   0.93431   1.000
    O50     O    0.02101   0.41014   0.07671   1.000
    O51     O    0.08576   0.47051   0.06524   1.000
loop_
    _geom_bond_atom_site_label_1
    _geom_bond_atom_site_label_2
    _geom_bond_distance
    _geom_bond_site_symmetry_2
    _ccdc_geom_bond_type
    Zr8    O9        2.12957      .   S
    N6     O9        4.06766      .   S
    Zr8    O10       2.14209      .   S
    N4     O10       5.28245      .   S
    Zr8    O11       1.86479      .   S
    N4     O11       5.60141      .   S
    Zr8    O12       1.79233  1_554   S
    N0     O12       5.66107      .   S
    Zr8    O13       2.08990  1_554   S
    N0     O13       5.35809      .   S
    Zr8    O14       1.79229      .   S
    N4     O14       5.66093      .   S
    Zr8    O15       2.08983      .   S
    N4     O15       5.35798      .   S
    Zr8    O16       2.12959  1_554   S
    N2     O16       4.06771      .   S
    Zr8    O17       1.86484  1_554   S
    N0     O17       5.60155      .   S
    Zr8    O18       2.14213  1_554   S
    N0     O18       5.28259      .   S
    Zr19   O20       2.08988  1_565   S
    N6     O20       5.35835      .   S
    Zr19   O21       2.12962      .   S
    N1     O21       4.06785      .   S
    Zr19   O22       1.79214  1_565   S
    N6     O22       5.66147      .   S
    Zr19   O23       2.14229      .   S
    N3     O23       5.28313      .   S
    Zr19   O24       1.86486      .   S
    N3     O24       5.60223      .   S
    Zr19   O25       2.14210  1_565   S
    N6     O25       5.28284      .   S
    Zr19   O26       1.86468  1_565   S
    N6     O26       5.60193      .   S
    Zr19   O27       2.12958  1_565   S
    N4     O27       4.06769      .   S
    Zr19   O28       2.09007      .   S
    N3     O28       5.35864      .   S
    Zr19   O29       1.79236      .   S
    N3     O29       5.66174      .   S
    Zr30   O31       2.12959  1_565   S
    N5     O31       4.06776      .   S
    Zr30   O32       2.14210  1_565   S
    N7     O32       5.28284      .   S
    Zr30   O33       1.79237      .   S
    N2     O33       5.66176      .   S
    Zr30   O34       2.09008      .   S
    N2     O34       5.35866      .   S
    Zr30   O35       1.86467  1_565   S
    N7     O35       5.60194      .   S
    Zr30   O36       2.08988  1_565   S
    N7     O36       5.35835      .   S
    Zr30   O37       1.79215  1_565   S
    N7     O37       5.66147      .   S
    Zr30   O38       2.14230      .   S
    N2     O38       5.28315      .   S
    Zr30   O39       1.86487      .   S
    N2     O39       5.60225      .   S
    Zr30   O40       2.12963      .   S
    N0     O40       4.06788      .   S
    Zr41   O42       1.79223  1_455   S
    N5     O42       5.66072  1_455   S
    Zr41   O43       2.08977  1_455   S
    N5     O43       5.35775  1_455   S
    Zr41   O44       2.14213  1_454   S
    N1     O44       5.28259      .   S
    Zr41   O45       1.86484  1_454   S
    N1     O45       5.60154      .   S
    Zr41   O46       2.12957  1_454   S
    N3     O46       4.06770      .   S
    Zr41   O47       2.14202      .   S
    N5     O47       5.28224      .   S
    Zr41   O48       2.08988  1_554   S
    N1     O48       5.35810  1_655   S
    Zr41   O49       1.79233  1_554   S
    N1     O49       5.66107  1_655   S
    Zr41   O50       1.86473      .   S
    N5     O50       5.60119      .   S
    Zr41   O51       2.12951      .   S
    N7     O51       4.06769      .   S
