# CIF file generated by openbabel 2.4.90, see http://openbabel.sf.net
data_I
_chemical_name_common ''
_cell_length_a 16.167
_cell_length_b 16.49
_cell_length_c 16.492
_cell_angle_alpha 98.472
_cell_angle_beta 93.827
_cell_angle_gamma 93.835
_space_group_name_H-M_alt 'P 1'
_space_group_name_Hall 'P 1'
loop_
    _symmetry_equiv_pos_as_xyz
    x,y,z
loop_
    _atom_site_label
    _atom_site_type_symbol
    _atom_site_fract_x
    _atom_site_fract_y
    _atom_site_fract_z
    _atom_site_occupancy
    Ca0     Ca   0.39597   0.33236   0.35868   1.000
    Ca1     Ca   0.81485   0.06527   0.49013   1.000
    Ca2     Ca   0.11188   0.88843   0.72357   1.000
    Ca3     Ca   0.10420   0.64025   0.66591   1.000
    Ca4     Ca   0.68503   0.50964   0.93396   1.000
    Ca5     Ca   0.61186   0.72347   0.88845   1.000
    Ca6     Ca   0.60424   0.66593   0.64034   1.000
    Ca7     Ca   0.18493   0.93408   0.50977   1.000
    Ca8     Ca   0.88827   0.11065   0.27607   1.000
    Ca9     Ca   0.89589   0.35855   0.33227   1.000
    Ca10    Ca   0.31459   0.48925   0.06481   1.000
    Ca11    Ca   0.38804   0.27555   0.11093   1.000
    C12     C    0.37153   0.14815   0.98498   1.000
    C13     C    0.57590   0.49858   0.61612   1.000
    C14     C    0.97449   0.13559   0.47143   1.000
    O15     O    0.64542   0.53161   0.60082   1.000
    O16     O    0.51728   0.53833   0.64595   1.000
    O17     O    0.94755   0.14556   0.54163   1.000
    O18     O    0.93102   0.09401   0.40795   1.000
    C19     C    0.49143   0.20383   0.27448   1.000
    C20     C    0.23775   0.80622   0.62225   1.000
    C21     C    0.76376   0.81448   0.66481   1.000
    C22     C    0.12786   0.01485   0.85063   1.000
    C23     C    0.92395   0.38362   0.49966   1.000
    C24     C    0.52518   0.52837   0.86397   1.000
    C25     C    0.00891   0.72437   0.79536   1.000
    C26     C    0.26226   0.37711   0.19318   1.000
    C27     C    0.73612   0.33375   0.18268   1.000
    C28     C    0.62759   0.85047   0.01492   1.000
    C29     C    0.42397   0.49983   0.38365   1.000
    C30     C    0.02515   0.86404   0.52849   1.000
    C31     C    0.50888   0.79530   0.72440   1.000
    C32     C    0.76242   0.19313   0.37753   1.000
    C33     C    0.23618   0.18269   0.33380   1.000
    C34     C    0.87150   0.98502   0.14829   1.000
    C35     C    0.07587   0.61610   0.49857   1.000
    C36     C    0.47446   0.47106   0.13429   1.000
    C37     C    0.99137   0.27410   0.20381   1.000
    C38     C    0.73785   0.62224   0.80621   1.000
    C39     C    0.26376   0.66482   0.81444   1.000
    O40     O    0.31976   0.20461   0.98569   1.000
    O41     O    0.42362   0.14622   0.04535   1.000
    O42     O    0.49279   0.21833   0.35267   1.000
    O43     O    0.45875   0.25263   0.23067   1.000
    O44     O    0.17822   0.77437   0.65661   1.000
    O45     O    0.25093   0.88414   0.62593   1.000
    O46     O    0.71603   0.75071   0.63224   1.000
    O47     O    0.82984   0.81604   0.70826   1.000
    O48     O    0.18022   0.01394   0.79472   1.000
    O49     O    0.07512   0.95479   0.85175   1.000
    O50     O    0.85481   0.39926   0.46609   1.000
    O51     O    0.98287   0.35389   0.46034   1.000
    O52     O    0.55210   0.45818   0.85415   1.000
    O53     O    0.56884   0.59193   0.90520   1.000
    O54     O    0.00761   0.64616   0.78110   1.000
    O55     O    0.04172   0.76799   0.74649   1.000
    O56     O    0.32215   0.34332   0.22512   1.000
    O57     O    0.24870   0.37285   0.11524   1.000
    O58     O    0.78447   0.36461   0.24654   1.000
    O59     O    0.66933   0.29132   0.18073   1.000
    O60     O    0.68018   0.79475   0.01391   1.000
    O61     O    0.57456   0.85132   0.95504   1.000
    O62     O    0.35487   0.46618   0.39932   1.000
    O63     O    0.48289   0.46061   0.35380   1.000
    O64     O    0.05211   0.85420   0.45832   1.000
    O65     O    0.06876   0.90531   0.59206   1.000
    O66     O    0.50759   0.78107   0.64620   1.000
    O67     O    0.54177   0.74645   0.76800   1.000
    O68     O    0.82209   0.22497   0.34335   1.000
    O69     O    0.74916   0.11522   0.37386   1.000
    O70     O    0.28454   0.24657   0.36465   1.000
    O71     O    0.16945   0.18073   0.29130   1.000
    O72     O    0.81971   0.98571   0.20474   1.000
    O73     O    0.92362   0.04538   0.14643   1.000
    O74     O    0.14539   0.60080   0.53159   1.000
    O75     O    0.01728   0.64595   0.53834   1.000
    O76     O    0.44776   0.54138   0.14267   1.000
    O77     O    0.43084   0.40709   0.09380   1.000
    O78     O    0.99266   0.35230   0.21835   1.000
    O79     O    0.95885   0.23022   0.25265   1.000
    O80     O    0.67835   0.65665   0.77438   1.000
    O81     O    0.75102   0.62587   0.88411   1.000
    O82     O    0.21602   0.63226   0.75068   1.000
    O83     O    0.32985   0.70826   0.81600   1.000
    Ts84    Ts   0.40616   0.32815   0.40585   1.000
    Ts85    Ts   0.77813   0.04351   0.49806   1.000
    Ts86    Ts   0.82815   0.01955   0.47847   1.000
    Ts87    Ts   0.78443   0.09788   0.51183   1.000
    Ts88    Ts   0.09390   0.59301   0.66964   1.000
    Ts89    Ts   0.72178   0.50191   0.96069   1.000
    Ts90    Ts   0.67140   0.52121   0.97950   1.000
    Ts91    Ts   0.71548   0.48794   0.90150   1.000
    Ts92    Ts   0.59395   0.66967   0.59310   1.000
    Ts93    Ts   0.17122   0.97966   0.52133   1.000
    Ts94    Ts   0.21542   0.90160   0.48806   1.000
    Ts95    Ts   0.22168   0.96078   0.50203   1.000
    Ts96    Ts   0.90609   0.40575   0.32808   1.000
    Ts97    Ts   0.32797   0.47783   0.01914   1.000
    Ts98    Ts   0.28431   0.51110   0.09753   1.000
    Ts99    Ts   0.27796   0.49745   0.04320   1.000
    Og100   Og   0.37089   0.12537   0.96033   1.000
    Og101   Og   0.57258   0.46735   0.60885   1.000
    Og102   Og   0.00217   0.14840   0.46495   1.000
    Og103   Og   0.50401   0.17864   0.25998   1.000
    Og104   Og   0.25582   0.78635   0.60662   1.000
    Og105   Og   0.75383   0.84221   0.65884   1.000
    Og106   Og   0.12858   0.03944   0.87350   1.000
    Og107   Og   0.92697   0.39065   0.53092   1.000
    Og108   Og   0.49744   0.53489   0.85132   1.000
    Og109   Og   0.99623   0.73893   0.82046   1.000
    Og110   Og   0.24417   0.39274   0.21305   1.000
    Og111   Og   0.74608   0.33999   0.15508   1.000
    Og112   Og   0.62836   0.87337   0.03948   1.000
    Og113   Og   0.42698   0.53110   0.39071   1.000
    Og114   Og   0.99739   0.85139   0.53499   1.000
    Og115   Og   0.49617   0.82036   0.73897   1.000
    Og116   Og   0.74429   0.21300   0.39310   1.000
    Og117   Og   0.24611   0.15509   0.34008   1.000
    Og118   Og   0.87086   0.96038   0.12551   1.000
    Og119   Og   0.07254   0.60883   0.46735   1.000
    Og120   Og   0.50205   0.46471   0.14736   1.000
    Og121   Og   0.00394   0.25965   0.17859   1.000
    Og122   Og   0.75590   0.60659   0.78633   1.000
    Og123   Og   0.25383   0.65883   0.84217   1.000
loop_
    _geom_bond_atom_site_label_1
    _geom_bond_atom_site_label_2
    _geom_bond_distance
    _geom_bond_site_symmetry_2
    _ccdc_geom_bond_type
    O60    C28       1.29196      .   S
    C28    O61       1.26618  1_554   S
    O41    C12       1.26599  1_554   S
    O77    Ca11      2.29556      .   S
    O77    C36       1.29850      .   S
    Ca11   O43       2.30775      .   S
    O57    C26       1.28027      .   S
    C36    O76       1.25610      .   S
    O73    C34       1.26572  1_545   S
    C34    O72       1.29223      .   S
    O59    C27       1.24255      .   S
    C27    O58       1.28778      .   S
    C26    O56       1.27114      .   S
    C37    O78       1.27487      .   S
    C37    O79       1.27516      .   S
    O43    C19       1.27513      .   S
    O58    Ca9       2.23145      .   S
    O79    Ca8       2.30682      .   S
    C19    O42       1.27483      .   S
    Ca8    O18       2.29875      .   S
    O71    C33       1.24252      .   S
    Ca9    O50       2.36233      .   S
    C33    O70       1.28781      .   S
    O68    C32       1.27117      .   S
    O63    C29       1.27245      .   S
    Ca0    O70       2.23174      .   S
    Ca0    O62       2.36225      .   S
    O69    C32       1.28016      .   S
    C29    O62       1.27298      .   S
    O18    C14       1.29844      .   S
    O64    C30       1.25581      .   S
    O51    C23       1.27253      .   S
    O50    C23       1.27303      .   S
    C14    O17       1.25608      .   S
    C35    O74       1.27281      .   S
    C35    O75       1.27276      .   S
    C30    O65       1.29857      .   S
    O74    Ca3       2.36737      .   S
    O65    Ca2       2.29553      .   S
    O15    C13       1.27278      .   S
    O15    Ca6       2.36721      .   S
    C13    O16       1.27277      .   S
    C20    O45       1.28016      .   S
    C20    O44       1.27118      .   S
    O46    Ca6       2.23328      .   S
    O46    C21       1.28825      .   S
    O66    C31       1.27481      .   S
    C21    O47       1.24271      .   S
    Ca3    O82       2.23343      .   S
    Ca2    O55       2.31311      .   S
    C31    O67       1.27494      .   S
    O55    C25       1.27492      .   S
    O82    C39       1.28832      .   S
    O67    Ca5       2.31352      .   S
    O80    C38       1.27119      .   S
    O54    C25       1.27481      .   S
    O48    C22       1.29190      .   S
    C38    O81       1.28010      .   S
    C39    O83       1.24270      .   S
    C22    O49       1.26598  1_545   S
    O52    C24       1.25573      .   S
    C24    O53       1.29848      .   S
    Ca5    O53       2.29465      .   S
    C12    O40       1.29213      .   S
    O40    Ca11      2.37991  1_556   S
    O41    Ca11      2.36976      .   S
    O16    Ca6       2.46807      .   S
    O17    Ca1       2.47444      .   S
    O18    Ca1       2.44920      .   S
    O42    Ca0       2.52102      .   S
    O43    Ca0       2.61945      .   S
    O44    Ca2       2.39235      .   S
    O44    Ca3       2.47340      .   S
    O45    Ca2       2.85009      .   S
    O45    Ca7       2.40735      .   S
    O48    Ca2       2.38473  1_545   S
    O49    Ca2       2.36487      .   S
    O51    Ca9       2.47190      .   S
    O52    Ca4       2.47382      .   S
    O53    Ca4       2.45090      .   S
    O54    Ca3       2.53341      .   S
    O55    Ca3       2.61962      .   S
    O56    Ca11      2.39531      .   S
    O56    Ca0       2.47059      .   S
    O57    Ca11      2.85053      .   S
    O57    Ca10      2.41359      .   S
    O60    Ca5       2.38485  1_554   S
    O61    Ca5       2.36445      .   S
    O63    Ca0       2.47408      .   S
    O64    Ca7       2.47294      .   S
    O65    Ca7       2.45054      .   S
    O66    Ca6       2.53353      .   S
    O67    Ca6       2.61824      .   S
    O68    Ca8       2.39628      .   S
    O68    Ca9       2.47093      .   S
    O69    Ca1       2.40685      .   S
    O69    Ca8       2.85231      .   S
    O72    Ca8       2.37969  1_565   S
    O73    Ca8       2.37139      .   S
    O75    Ca3       2.46809      .   S
    O76    Ca10      2.46612      .   S
    O77    Ca10      2.45107      .   S
    O78    Ca9       2.51896      .   S
    O79    Ca9       2.62427      .   S
    O80    Ca5       2.39291      .   S
    O80    Ca6       2.47326      .   S
    O81    Ca4       2.40736      .   S
    O81    Ca5       2.85121      .   S
    Ca0    Ts84      0.79854      .   S
    Ca1    Ts85      0.70270      .   S
    Ca1    Ts86      0.79761      .   S
    Ca1    Ts87      0.81309      .   S
    Ca3    Ts88      0.79784      .   S
    Ca4    Ts89      0.74523      .   S
    Ca4    Ts90      0.79661      .   S
    Ca4    Ts91      0.81187      .   S
    Ca6    Ts92      0.79781      .   S
    Ca7    Ts93      0.79765      .   S
    Ca7    Ts94      0.81256      .   S
    Ca7    Ts95      0.74491      .   S
    Ca9    Ts96      0.79861      .   S
    Ca10   Ts97      0.79675      .   S
    Ca10   Ts98      0.81382      .   S
    Ca10   Ts99      0.70180      .   S
    C12    Og100     0.51019      .   S
    C13    Og101     0.50958      .   S
    C14    Og102     0.50658  1_655   S
    C19    Og103     0.50942      .   S
    C20    Og104     0.50706      .   S
    C21    Og105     0.51530      .   S
    C22    Og106     0.51030      .   S
    C23    Og107     0.50989      .   S
    C24    Og108     0.50674      .   S
    C25    Og109     0.50950  1_455   S
    C26    Og110     0.50722      .   S
    C27    Og111     0.51491      .   S
    C28    Og112     0.51031      .   S
    C29    Og113     0.50989      .   S
    C30    Og114     0.50683  1_455   S
    C31    Og115     0.50941      .   S
    C32    Og116     0.50721      .   S
    C33    Og117     0.51489      .   S
    C34    Og118     0.51020      .   S
    C35    Og119     0.50961      .   S
    C36    Og120     0.50648      .   S
    C37    Og121     0.50950  1_655   S
    C38    Og122     0.50707      .   S
    C39    Og123     0.51527      .   S
