# CIF file generated by openbabel 2.4.90, see http://openbabel.sf.net
data_I
_chemical_name_common ''
_cell_length_a 16.167
_cell_length_b 16.49
_cell_length_c 16.492
_cell_angle_alpha 98.472
_cell_angle_beta 93.827
_cell_angle_gamma 93.835
_space_group_name_H-M_alt 'P 1'
_space_group_name_Hall 'P 1'
loop_
    _symmetry_equiv_pos_as_xyz
    x,y,z
loop_
    _atom_site_label
    _atom_site_type_symbol
    _atom_site_fract_x
    _atom_site_fract_y
    _atom_site_fract_z
    _atom_site_occupancy
    Zr0     Zr   0.38804   0.27555   0.11093   1.000
    Zr1     Zr   0.39597   0.33236   0.35868   1.000
    Zr2     Zr   0.81485   0.06527   0.49013   1.000
    Zr3     Zr   0.11188   0.88843   0.72357   1.000
    Zr4     Zr   0.10420   0.64025   0.66591   1.000
    Zr5     Zr   0.68503   0.50964   0.93396   1.000
    Zr6     Zr   0.61186   0.72347   0.88845   1.000
    Zr7     Zr   0.60424   0.66593   0.64034   1.000
    Zr8     Zr   0.18493   0.93408   0.50977   1.000
    Zr9     Zr   0.88827   0.11065   0.27607   1.000
    Zr10    Zr   0.89589   0.35855   0.33227   1.000
    Zr11    Zr   0.31459   0.48925   0.06481   1.000
    Zr12    Zr   0.37153   0.14815   0.98498   1.000
    Zr13    Zr   0.57590   0.49858   0.61612   1.000
    Zr14    Zr   0.97449   0.13559   0.47143   1.000
    Zr15    Zr   0.49143   0.20383   0.27448   1.000
    Zr16    Zr   0.23775   0.80622   0.62225   1.000
    Zr17    Zr   0.76376   0.81448   0.66481   1.000
    Zr18    Zr   0.12786   0.01485   0.85063   1.000
    Zr19    Zr   0.92395   0.38362   0.49966   1.000
    Zr20    Zr   0.52518   0.52837   0.86397   1.000
    Zr21    Zr   0.00891   0.72437   0.79536   1.000
    Zr22    Zr   0.26226   0.37711   0.19318   1.000
    Zr23    Zr   0.73612   0.33375   0.18268   1.000
    Zr24    Zr   0.62759   0.85047   0.01492   1.000
    Zr25    Zr   0.42397   0.49983   0.38365   1.000
    Zr26    Zr   0.02515   0.86404   0.52849   1.000
    Zr27    Zr   0.50888   0.79530   0.72440   1.000
    Zr28    Zr   0.76242   0.19313   0.37753   1.000
    Zr29    Zr   0.23618   0.18269   0.33380   1.000
    Zr30    Zr   0.87150   0.98502   0.14829   1.000
    Zr31    Zr   0.07587   0.61610   0.49857   1.000
    Zr32    Zr   0.47446   0.47106   0.13429   1.000
    Zr33    Zr   0.99137   0.27410   0.20381   1.000
    Zr34    Zr   0.73785   0.62224   0.80621   1.000
    Zr35    Zr   0.26376   0.66482   0.81444   1.000
    Zr36    Zr   0.31976   0.20461   0.98569   1.000
    Zr37    Zr   0.42362   0.14622   0.04535   1.000
    Zr38    Zr   0.64542   0.53161   0.60082   1.000
    Zr39    Zr   0.51728   0.53833   0.64595   1.000
    Zr40    Zr   0.94755   0.14556   0.54163   1.000
    Zr41    Zr   0.93102   0.09401   0.40795   1.000
    Zr42    Zr   0.49279   0.21833   0.35267   1.000
    Zr43    Zr   0.45875   0.25263   0.23067   1.000
    Zr44    Zr   0.17822   0.77437   0.65661   1.000
    Zr45    Zr   0.25093   0.88414   0.62593   1.000
    Zr46    Zr   0.71603   0.75071   0.63224   1.000
    Zr47    Zr   0.82984   0.81604   0.70826   1.000
    Zr48    Zr   0.18022   0.01394   0.79472   1.000
    Zr49    Zr   0.07512   0.95479   0.85175   1.000
    Zr50    Zr   0.85481   0.39926   0.46609   1.000
    Zr51    Zr   0.98287   0.35389   0.46034   1.000
    Zr52    Zr   0.55210   0.45818   0.85415   1.000
    Zr53    Zr   0.56884   0.59193   0.90520   1.000
    Zr54    Zr   0.00761   0.64616   0.78110   1.000
    Zr55    Zr   0.04172   0.76799   0.74649   1.000
    Zr56    Zr   0.32215   0.34332   0.22512   1.000
    Zr57    Zr   0.24870   0.37285   0.11524   1.000
    Zr58    Zr   0.78447   0.36461   0.24654   1.000
    Zr59    Zr   0.66933   0.29132   0.18073   1.000
    Zr60    Zr   0.68018   0.79475   0.01391   1.000
    Zr61    Zr   0.57456   0.85132   0.95504   1.000
    Zr62    Zr   0.35487   0.46618   0.39932   1.000
    Zr63    Zr   0.48289   0.46061   0.35380   1.000
    Zr64    Zr   0.05211   0.85420   0.45832   1.000
    Zr65    Zr   0.06876   0.90531   0.59206   1.000
    Zr66    Zr   0.50759   0.78107   0.64620   1.000
    Zr67    Zr   0.54177   0.74645   0.76800   1.000
    Zr68    Zr   0.82209   0.22497   0.34335   1.000
    Zr69    Zr   0.74916   0.11522   0.37386   1.000
    Zr70    Zr   0.28454   0.24657   0.36465   1.000
    Zr71    Zr   0.16945   0.18073   0.29130   1.000
    Zr72    Zr   0.81971   0.98571   0.20474   1.000
    Zr73    Zr   0.92362   0.04538   0.14643   1.000
    Zr74    Zr   0.14539   0.60080   0.53159   1.000
    Zr75    Zr   0.01728   0.64595   0.53834   1.000
    Zr76    Zr   0.44776   0.54138   0.14267   1.000
    Zr77    Zr   0.43084   0.40709   0.09380   1.000
    Zr78    Zr   0.99266   0.35230   0.21835   1.000
    Zr79    Zr   0.95885   0.23022   0.25265   1.000
    Zr80    Zr   0.67835   0.65665   0.77438   1.000
    Zr81    Zr   0.75102   0.62587   0.88411   1.000
    Zr82    Zr   0.21602   0.63226   0.75068   1.000
    Zr83    Zr   0.32985   0.70826   0.81600   1.000
    O84     O    0.65389   0.82261   0.01442   1.000
    O85     O    0.60108   0.85090   0.98498   1.000
    O86     O    0.39757   0.14719   0.01516   1.000
    O87     O    0.40944   0.34132   0.10237   1.000
    O88     O    0.45265   0.43908   0.11405   1.000
    O89     O    0.42340   0.26409   0.17080   1.000
    O90     O    0.25548   0.37498   0.15421   1.000
    O91     O    0.46111   0.50622   0.13848   1.000
    O92     O    0.89756   0.01520   0.14736   1.000
    O93     O    0.84560   0.98536   0.17652   1.000
    O94     O    0.70272   0.31254   0.18170   1.000
    O95     O    0.76029   0.34918   0.21461   1.000
    O96     O    0.29220   0.36022   0.20915   1.000
    O97     O    0.99202   0.31320   0.21108   1.000
    O98     O    0.97511   0.25216   0.22823   1.000
    O99     O    0.47509   0.22823   0.25257   1.000
    O100    O    0.84018   0.36158   0.28941   1.000
    O101    O    0.92356   0.17043   0.26436   1.000
    O102    O    0.49211   0.21108   0.31357   1.000
    O103    O    0.90964   0.10233   0.34201   1.000
    O104    O    0.20281   0.18171   0.31255   1.000
    O105    O    0.87535   0.37891   0.39918   1.000
    O106    O    0.26036   0.21463   0.34923   1.000
    O107    O    0.79225   0.20905   0.36044   1.000
    O108    O    0.45343   0.48022   0.36872   1.000
    O109    O    0.34026   0.28947   0.36166   1.000
    O110    O    0.37542   0.39927   0.37900   1.000
    O111    O    0.75579   0.15417   0.37570   1.000
    O112    O    0.38942   0.48301   0.39148   1.000
    O113    O    0.95276   0.11480   0.43969   1.000
    O114    O    0.03863   0.85912   0.49340   1.000
    O115    O    0.95341   0.36876   0.48000   1.000
    O116    O    0.88938   0.39144   0.48287   1.000
    O117    O    0.96102   0.14058   0.50653   1.000
    O118    O    0.11063   0.60845   0.51508   1.000
    O119    O    0.04657   0.63102   0.51845   1.000
    O120    O    0.04695   0.88468   0.56028   1.000
    O121    O    0.12480   0.62053   0.59875   1.000
    O122    O    0.09032   0.89687   0.65782   1.000
    O123    O    0.61066   0.51510   0.60847   1.000
    O124    O    0.62483   0.59877   0.62058   1.000
    O125    O    0.54659   0.51845   0.63103   1.000
    O126    O    0.24434   0.84518   0.62409   1.000
    O127    O    0.20799   0.79030   0.63943   1.000
    O128    O    0.66013   0.70832   0.63629   1.000
    O129    O    0.73989   0.78259   0.64853   1.000
    O130    O    0.50823   0.78819   0.68530   1.000
    O131    O    0.79680   0.81526   0.68654   1.000
    O132    O    0.16011   0.63625   0.70830   1.000
    O133    O    0.07680   0.82821   0.73503   1.000
    O134    O    0.52532   0.77087   0.74620   1.000
    O135    O    0.02531   0.74618   0.77092   1.000
    O136    O    0.23989   0.64854   0.78256   1.000
    O137    O    0.57681   0.73496   0.82822   1.000
    O138    O    0.70810   0.63945   0.79030   1.000
    O139    O    0.00826   0.68527   0.78823   1.000
    O140    O    0.15404   0.01440   0.82268   1.000
    O141    O    0.74443   0.62405   0.84516   1.000
    O142    O    0.29680   0.68654   0.81522   1.000
    O143    O    0.10149   0.98482   0.85119   1.000
    O144    O    0.53864   0.49327   0.85906   1.000
    O145    O    0.54701   0.56015   0.88458   1.000
    O146    O    0.59035   0.65770   0.89682   1.000
    O147    O    0.34564   0.17638   0.98533   1.000
    O148    O    0.35390   0.24008   0.04831   1.000
    O149    O    0.40583   0.21089   0.07814   1.000
    O150    O    0.56076   0.60213   0.64314   1.000
    O151    O    0.88120   0.10542   0.51588   1.000
    O152    O    0.87293   0.07964   0.44904   1.000
    O153    O    0.44438   0.27534   0.35567   1.000
    O154    O    0.42736   0.29250   0.29468   1.000
    O155    O    0.14505   0.83140   0.69009   1.000
    O156    O    0.14121   0.70731   0.66126   1.000
    O157    O    0.18141   0.88629   0.67475   1.000
    O158    O    0.21793   0.90911   0.56785   1.000
    O159    O    0.14605   0.95118   0.75915   1.000
    O160    O    0.09350   0.92161   0.78766   1.000
    O161    O    0.93938   0.35622   0.39631   1.000
    O162    O    0.61857   0.48391   0.89406   1.000
    O163    O    0.62693   0.55078   0.91958   1.000
    O164    O    0.05590   0.64321   0.72350   1.000
    O165    O    0.07296   0.70412   0.70620   1.000
    O166    O    0.35509   0.30943   0.16803   1.000
    O167    O    0.35906   0.33784   0.29190   1.000
    O168    O    0.31837   0.32420   0.11309   1.000
    O169    O    0.28164   0.43105   0.09002   1.000
    O170    O    0.64602   0.75911   0.95118   1.000
    O171    O    0.59321   0.78740   0.92174   1.000
    O172    O    0.43943   0.39649   0.35624   1.000
    O173    O    0.11852   0.89414   0.48405   1.000
    O174    O    0.12685   0.91969   0.55092   1.000
    O175    O    0.55591   0.72350   0.64327   1.000
    O176    O    0.57300   0.70619   0.70417   1.000
    O177    O    0.85518   0.16781   0.30971   1.000
    O178    O    0.85899   0.29176   0.33781   1.000
    O179    O    0.78200   0.09024   0.43199   1.000
    O180    O    0.81872   0.11293   0.32497   1.000
    O181    O    0.85399   0.04818   0.24041   1.000
    O182    O    0.90595   0.07801   0.21125   1.000
    O183    O    0.06074   0.64310   0.60213   1.000
    O184    O    0.38117   0.51531   0.10374   1.000
    O185    O    0.37271   0.44817   0.07930   1.000
    O186    O    0.94428   0.35543   0.27531   1.000
    O187    O    0.92737   0.29439   0.29246   1.000
    O188    O    0.64511   0.69006   0.83142   1.000
    O189    O    0.64130   0.66129   0.70736   1.000
    O190    O    0.71802   0.56775   0.90903   1.000
    O191    O    0.68144   0.67467   0.88628   1.000
    N192    N    0.82676   0.64733   0.21227   1.000
    O193    O    0.94882   0.62626   0.33200   1.000
    O194    O    0.86898   0.53834   0.26912   1.000
    O195    O    0.84865   0.79770   0.16319   1.000
    O196    O    0.74568   0.58717   0.10727   1.000
    O197    O    0.67131   0.55443   0.18308   1.000
    N198    N    0.99284   0.54795   0.08042   1.000
    O199    O    0.86650   0.52300   0.02724   1.000
    O200    O    0.13101   0.53499   0.09716   1.000
    O201    O    0.87195   0.44553   0.11085   1.000
    O202    O    0.11398   0.47425   0.15170   1.000
    O203    O    0.99137   0.64708   0.95671   1.000
    N204    N    0.50725   0.91956   0.45151   1.000
    O205    O    0.62806   0.88782   0.55368   1.000
    O206    O    0.63351   0.97610   0.47677   1.000
    O207    O    0.38605   0.84799   0.52516   1.000
    O208    O    0.36895   0.90246   0.46435   1.000
    O209    O    0.50877   0.04281   0.35212   1.000
    N210    N    0.49276   0.08038   0.54811   1.000
    O211    O    0.61399   0.15166   0.47450   1.000
    O212    O    0.37192   0.11084   0.44566   1.000
    O213    O    0.49129   0.95664   0.64718   1.000
    O214    O    0.63099   0.09728   0.53540   1.000
    O215    O    0.36641   0.02726   0.52313   1.000
    N216    N    0.17277   0.35215   0.78654   1.000
    O217    O    0.15085   0.20194   0.83573   1.000
    O218    O    0.13076   0.46077   0.72902   1.000
    O219    O    0.25371   0.41213   0.89142   1.000
    O220    O    0.32817   0.44515   0.81577   1.000
    O221    O    0.05063   0.37315   0.66655   1.000
    N222    N    0.00759   0.45141   0.91949   1.000
    O223    O    0.00890   0.35192   0.04274   1.000
    O224    O    0.13362   0.47648   0.97595   1.000
    O225    O    0.88626   0.52509   0.84794   1.000
    O226    O    0.86915   0.46425   0.90239   1.000
    O227    O    0.12823   0.55363   0.88776   1.000
    N228    N    0.67274   0.78668   0.35223   1.000
    O229    O    0.55062   0.66670   0.37324   1.000
    O230    O    0.75377   0.89168   0.41244   1.000
    O231    O    0.63078   0.72911   0.46086   1.000
    O232    O    0.65074   0.83575   0.20199   1.000
    O233    O    0.82813   0.81587   0.44524   1.000
    N234    N    0.32653   0.21231   0.64735   1.000
    O235    O    0.17127   0.18355   0.55453   1.000
    O236    O    0.36889   0.26918   0.53840   1.000
    O237    O    0.24545   0.10738   0.58723   1.000
    O238    O    0.44872   0.33202   0.62628   1.000
    O239    O    0.34855   0.16315   0.79768   1.000
loop_
    _geom_bond_atom_site_label_1
    _geom_bond_atom_site_label_2
    _geom_bond_distance
    _geom_bond_site_symmetry_2
    _ccdc_geom_bond_type
    Zr60   O84       0.64598      .   S
    Zr24   O84       0.64598      .   S
    Zr24   O85       0.63309  1_554   S
    Zr61   O85       0.63309      .   S
    Zr37   O86       0.63299      .   S
    Zr12   O86       0.63299  1_556   S
    Zr77   O87       1.14778      .   S
    Zr0    O87       1.14778      .   S
    Zr77   O88       0.64925      .   S
    Zr32   O88       0.64925      .   S
    Zr0    O89       1.15388      .   S
    Zr43   O89       1.15388      .   S
    Zr57   O90       0.64013      .   S
    Zr22   O90       0.64013      .   S
    Zr32   O91       0.62805      .   S
    Zr76   O91       0.62805      .   S
    Zr73   O92       0.63286      .   S
    Zr30   O92       0.63286  1_565   S
    Zr30   O93       0.64612      .   S
    Zr72   O93       0.64612      .   S
    Zr59   O94       0.62128      .   S
    Zr23   O94       0.62128      .   S
    Zr23   O95       0.64389      .   S
    Zr58   O95       0.64389      .   S
    Zr22   O96       0.63557      .   S
    Zr56   O96       0.63557      .   S
    Zr33   O97       0.63743      .   S
    Zr78   O97       0.63743      .   S
    Zr33   O98       0.63758      .   S
    Zr79   O98       0.63758      .   S
    Zr43   O99       0.63756      .   S
    Zr15   O99       0.63756      .   S
    Zr58   O100      1.11572      .   S
    Zr10   O100      1.11572      .   S
    Zr79   O101      1.15341      .   S
    Zr9    O101      1.15341      .   S
    Zr15   O102      0.63741      .   S
    Zr42   O102      0.63741      .   S
    Zr9    O103      1.14937      .   S
    Zr41   O103      1.14937      .   S
    Zr71   O104      0.62126      .   S
    Zr29   O104      0.62126      .   S
    Zr10   O105      1.18116      .   S
    Zr50   O105      1.18116      .   S
    Zr29   O106      0.64390      .   S
    Zr70   O106      0.64390      .   S
    Zr68   O107      0.63559      .   S
    Zr28   O107      0.63559      .   S
    Zr63   O108      0.63622      .   S
    Zr25   O108      0.63622      .   S
    Zr1    O109      1.11587      .   S
    Zr70   O109      1.11587      .   S
    Zr1    O110      1.18112      .   S
    Zr62   O110      1.18112      .   S
    Zr69   O111      0.64008      .   S
    Zr28   O111      0.64008      .   S
    Zr25   O112      0.63649      .   S
    Zr62   O112      0.63649      .   S
    Zr41   O113      0.64922      .   S
    Zr14   O113      0.64922      .   S
    Zr64   O114      0.62791      .   S
    Zr26   O114      0.62791      .   S
    Zr51   O115      0.63626      .   S
    Zr19   O115      0.63626      .   S
    Zr50   O116      0.63651      .   S
    Zr19   O116      0.63651      .   S
    Zr14   O117      0.62804      .   S
    Zr40   O117      0.62804      .   S
    Zr31   O118      0.63641      .   S
    Zr74   O118      0.63641      .   S
    Zr31   O119      0.63638      .   S
    Zr75   O119      0.63638      .   S
    Zr26   O120      0.64929      .   S
    Zr65   O120      0.64929      .   S
    Zr74   O121      1.18369      .   S
    Zr4    O121      1.18369      .   S
    Zr65   O122      1.14776      .   S
    Zr3    O122      1.14776      .   S
    Zr38   O123      0.63639      .   S
    Zr13   O123      0.63639      .   S
    Zr38   O124      1.18361      .   S
    Zr7    O124      1.18361      .   S
    Zr13   O125      0.63638      .   S
    Zr39   O125      0.63638      .   S
    Zr16   O126      0.64008      .   S
    Zr45   O126      0.64008      .   S
    Zr16   O127      0.63559      .   S
    Zr44   O127      0.63559      .   S
    Zr46   O128      1.11664      .   S
    Zr7    O128      1.11664      .   S
    Zr46   O129      0.64413      .   S
    Zr17   O129      0.64413      .   S
    Zr66   O130      0.63740      .   S
    Zr27   O130      0.63740      .   S
    Zr17   O131      0.62136      .   S
    Zr47   O131      0.62136      .   S
    Zr4    O132      1.11671      .   S
    Zr82   O132      1.11671      .   S
    Zr3    O133      1.15655      .   S
    Zr55   O133      1.15655      .   S
    Zr27   O134      0.63747      .   S
    Zr67   O134      0.63747      .   S
    Zr55   O135      0.63746      .   S
    Zr21   O135      0.63746      .   S
    Zr82   O136      0.64416      .   S
    Zr35   O136      0.64416      .   S
    Zr67   O137      1.15676      .   S
    Zr6    O137      1.15676      .   S
    Zr80   O138      0.63559      .   S
    Zr34   O138      0.63559      .   S
    Zr54   O139      0.63740      .   S
    Zr21   O139      0.63740      .   S
    Zr48   O140      0.64595      .   S
    Zr18   O140      0.64595      .   S
    Zr34   O141      0.64005      .   S
    Zr81   O141      0.64005      .   S
    Zr35   O142      0.62135      .   S
    Zr83   O142      0.62135      .   S
    Zr18   O143      0.63299  1_545   S
    Zr49   O143      0.63299      .   S
    Zr52   O144      0.62786      .   S
    Zr20   O144      0.62786      .   S
    Zr20   O145      0.64924      .   S
    Zr53   O145      0.64924      .   S
    Zr6    O146      1.14733      .   S
    Zr53   O146      1.14733      .   S
    Zr12   O147      0.64607      .   S
    Zr36   O147      0.64607      .   S
    Zr36   O148      1.18996  1_556   S
    Zr0    O148      1.18996      .   S
    Zr37   O149      1.18488      .   S
    Zr0    O149      1.18488      .   S
    Zr39   O150      1.23404      .   S
    Zr7    O150      1.23404      .   S
    Zr40   O151      1.23722      .   S
    Zr2    O151      1.23722      .   S
    Zr41   O152      1.22460      .   S
    Zr2    O152      1.22460      .   S
    Zr42   O153      1.26051      .   S
    Zr1    O153      1.26051      .   S
    Zr43   O154      1.30973      .   S
    Zr1    O154      1.30973      .   S
    Zr44   O155      1.19617      .   S
    Zr3    O155      1.19617      .   S
    Zr44   O156      1.23670      .   S
    Zr4    O156      1.23670      .   S
    Zr45   O157      1.42504      .   S
    Zr3    O157      1.42504      .   S
    Zr45   O158      1.20367      .   S
    Zr8    O158      1.20367      .   S
    Zr48   O159      1.19236  1_545   S
    Zr3    O159      1.19236      .   S
    Zr49   O160      1.18243      .   S
    Zr3    O160      1.18243      .   S
    Zr51   O161      1.23595      .   S
    Zr10   O161      1.23595      .   S
    Zr52   O162      1.23691      .   S
    Zr5    O162      1.23691      .   S
    Zr53   O163      1.22545      .   S
    Zr5    O163      1.22545      .   S
    Zr54   O164      1.26671      .   S
    Zr4    O164      1.26671      .   S
    Zr55   O165      1.30981      .   S
    Zr4    O165      1.30981      .   S
    Zr56   O166      1.19765      .   S
    Zr0    O166      1.19765      .   S
    Zr56   O167      1.23529      .   S
    Zr1    O167      1.23529      .   S
    Zr57   O168      1.42526      .   S
    Zr0    O168      1.42526      .   S
    Zr57   O169      1.20680      .   S
    Zr11   O169      1.20680      .   S
    Zr60   O170      1.19242  1_554   S
    Zr6    O170      1.19242      .   S
    Zr61   O171      1.18222      .   S
    Zr6    O171      1.18222      .   S
    Zr63   O172      1.23704      .   S
    Zr1    O172      1.23704      .   S
    Zr64   O173      1.23647      .   S
    Zr8    O173      1.23647      .   S
    Zr65   O174      1.22527      .   S
    Zr8    O174      1.22527      .   S
    Zr66   O175      1.26676      .   S
    Zr7    O175      1.26676      .   S
    Zr67   O176      1.30912      .   S
    Zr7    O176      1.30912      .   S
    Zr68   O177      1.19814      .   S
    Zr9    O177      1.19814      .   S
    Zr68   O178      1.23547      .   S
    Zr10   O178      1.23547      .   S
    Zr69   O179      1.20343      .   S
    Zr2    O179      1.20343      .   S
    Zr69   O180      1.42615      .   S
    Zr9    O180      1.42615      .   S
    Zr72   O181      1.18985  1_565   S
    Zr9    O181      1.18985      .   S
    Zr73   O182      1.18569      .   S
    Zr9    O182      1.18569      .   S
    Zr75   O183      1.23405      .   S
    Zr4    O183      1.23405      .   S
    Zr76   O184      1.23306      .   S
    Zr11   O184      1.23306      .   S
    Zr77   O185      1.22554      .   S
    Zr11   O185      1.22554      .   S
    Zr78   O186      1.25948      .   S
    Zr10   O186      1.25948      .   S
    Zr79   O187      1.31213      .   S
    Zr10   O187      1.31213      .   S
    Zr80   O188      1.19645      .   S
    Zr6    O188      1.19645      .   S
    Zr80   O189      1.23663      .   S
    Zr7    O189      1.23663      .   S
    Zr81   O190      1.20368      .   S
    Zr5    O190      1.20368      .   S
    Zr81   O191      1.42561      .   S
    Zr6    O191      1.42561      .   S
    N192   O193      2.77267      .   S
    Zr31   O193      3.34991  1_455   S
    N192   O194      2.26953      .   S
    Zr10   O194      3.32938      .   S
    N192   O195      2.72764      .   S
    Zr30   O195      3.13393      .   S
    N192   O196      2.17213      .   S
    Zr5    O196      3.02442  1_556   S
    N192   O197      2.82870      .   S
    Zr32   O197      3.37818      .   S
    N198   O199      2.15705      .   S
    Zr5    O199      3.19900  1_556   S
    N198   O200      2.26063  1_655   S
    Zr11   O200      3.17089      .   S
    N198   O201      2.61978      .   S
    Zr23   O201      3.17378      .   S
    N198   O202      2.66955  1_655   S
    Zr22   O202      3.06573      .   S
    N198   O203      2.79576  1_554   S
    Zr21   O203      3.13642  1_455   S
    N204   O205      2.62401      .   S
    Zr17   O205      3.17899      .   S
    N204   O206      2.17422      .   S
    Zr2    O206      3.16965  1_545   S
    N204   O207      2.67174      .   S
    Zr16   O207      3.06648      .   S
    N204   O208      2.26269      .   S
    Zr8    O208      3.17388      .   S
    N204   O209      2.79241  1_565   S
    Zr15   O209      3.13404      .   S
    N210   O211      2.66960      .   S
    Zr28   O211      3.06567      .   S
    N210   O212      2.61993      .   S
    Zr29   O212      3.17410      .   S
    N210   O213      2.79549  1_545   S
    Zr27   O213      3.13566      .   S
    N210   O214      2.26111      .   S
    Zr2    O214      3.17186      .   S
    N210   O215      2.15679      .   S
    Zr8    O215      3.19813  1_565   S
    N216   O217      2.72617      .   S
    Zr18   O217      3.13025      .   S
    N216   O218      2.26856      .   S
    Zr4    O218      3.32348      .   S
    N216   O219      2.16879      .   S
    Zr11   O219      3.02444  1_554   S
    N216   O220      2.82866      .   S
    Zr20   O220      3.37875      .   S
    N216   O221      2.77619      .   S
    Zr19   O221      3.35177  1_655   S
    N222   O223      2.79370  1_556   S
    Zr33   O223      3.13688  1_655   S
    N222   O224      2.17025      .   S
    Zr11   O224      3.16319  1_554   S
    N222   O225      2.67370  1_455   S
    Zr34   O225      3.06847      .   S
    N222   O226      2.26509  1_455   S
    Zr5    O226      3.17517      .   S
    N222   O227      2.62207      .   S
    Zr35   O227      3.17708      .   S
    N228   O229      2.77541      .   S
    Zr25   O229      3.35059      .   S
    N228   O230      2.17176      .   S
    Zr2    O230      3.03032  1_545   S
    N228   O231      2.26894      .   S
    Zr7    O231      3.32400      .   S
    N228   O232      2.72617      .   S
    Zr24   O232      3.12985      .   S
    N228   O233      2.82871      .   S
    Zr26   O233      3.37910  1_455   S
    N234   O235      2.82535      .   S
    Zr14   O235      3.37436  1_655   S
    N234   O236      2.26981      .   S
    Zr1    O236      3.32933      .   S
    N234   O237      2.17087      .   S
    Zr8    O237      3.02314  1_565   S
    N234   O238      2.77354      .   S
    Zr13   O238      3.35036      .   S
    N234   O239      2.72828      .   S
    Zr12   O239      3.13444      .   S
