# CIF file generated by openbabel 2.4.90, see http://openbabel.sf.net
data_I
_chemical_name_common ''
_cell_length_a 16.167
_cell_length_b 16.49
_cell_length_c 16.492
_cell_angle_alpha 98.472
_cell_angle_beta 93.827
_cell_angle_gamma 93.835
_space_group_name_H-M_alt 'P 1'
_space_group_name_Hall 'P 1'
loop_
    _symmetry_equiv_pos_as_xyz
    x,y,z
loop_
    _atom_site_label
    _atom_site_type_symbol
    _atom_site_fract_x
    _atom_site_fract_y
    _atom_site_fract_z
    _atom_site_occupancy
    N0      N    0.82676   0.64733   0.21227   1.000
    N1      N    0.99284   0.54795   0.08042   1.000
    N2      N    0.50725   0.91956   0.45151   1.000
    N3      N    0.49276   0.08038   0.54811   1.000
    N4      N    0.17277   0.35215   0.78654   1.000
    N5      N    0.00759   0.45141   0.91949   1.000
    N6      N    0.67274   0.78668   0.35223   1.000
    N7      N    0.32653   0.21231   0.64735   1.000
    Zr8     Zr   0.62873   0.67388   0.78769   1.000
    O9      O    0.56001   0.81526   0.71743   1.000
    O10     O    0.47845   0.55951   0.80173   1.000
    O11     O    0.62839   0.78085   0.67068   1.000
    O12     O    0.53873   0.50295   0.70699   1.000
    O13     O    0.63973   0.75481   0.99484   1.000
    O14     O    0.74894   0.56906   0.84504   1.000
    O15     O    0.68720   0.63052   0.94748   1.000
    O16     O    0.74761   0.59844   0.90746   1.000
    O17     O    0.75749   0.59948   0.81782   1.000
    O18     O    0.62975   0.70149   0.62427   1.000
    Zr19    Zr   0.12874   0.78768   0.67393   1.000
    O20     O    0.25739   0.81784   0.59954   1.000
    O21     O    0.06005   0.71738   0.81532   1.000
    O22     O    0.12849   0.67066   0.78085   1.000
    O23     O    0.12975   0.62422   0.70148   1.000
    O24     O    0.97843   0.80178   0.55959   1.000
    O25     O    0.13980   0.99481   0.75483   1.000
    O26     O    0.03878   0.70697   0.50297   1.000
    O27     O    0.24885   0.84507   0.56914   1.000
    O28     O    0.24757   0.90747   0.59853   1.000
    O29     O    0.18709   0.94753   0.63058   1.000
    Zr30    Zr   0.37117   0.32478   0.21138   1.000
    O31     O    0.31244   0.36846   0.05140   1.000
    O32     O    0.25239   0.40063   0.09367   1.000
    O33     O    0.25109   0.42989   0.15427   1.000
    O34     O    0.37154   0.21781   0.32852   1.000
    O35     O    0.52124   0.43961   0.19723   1.000
    O36     O    0.24257   0.39952   0.18154   1.000
    O37     O    0.43997   0.18379   0.28175   1.000
    O38     O    0.35986   0.24396   0.00453   1.000
    O39     O    0.46089   0.49574   0.29231   1.000
    O40     O    0.37003   0.29698   0.37489   1.000
    Zr41    Zr   0.87119   0.21153   0.32498   1.000
    O42     O    0.75235   0.09381   0.40087   1.000
    O43     O    0.75109   0.15441   0.43019   1.000
    O44     O    0.81248   0.05161   0.36871   1.000
    O45     O    0.74259   0.18159   0.39974   1.000
    O46     O    0.02123   0.19754   0.43975   1.000
    O47     O    0.94005   0.28173   0.18386   1.000
    O48     O    0.87157   0.32853   0.21791   1.000
    O49     O    0.87008   0.37493   0.29705   1.000
    O50     O    0.96091   0.29234   0.49576   1.000
    O51     O    0.85992   0.00461   0.24409   1.000
loop_
    _geom_bond_atom_site_label_1
    _geom_bond_atom_site_label_2
    _geom_bond_distance
    _geom_bond_site_symmetry_2
    _ccdc_geom_bond_type
    Zr8    O9        2.99712      .   S
    N3     O9        5.64990  1_545   S
    Zr8    O10       3.01724      .   S
    N4     O10       5.78789      .   S
    Zr8    O11       2.79961      .   S
    N2     O11       4.92183      .   S
    Zr8    O12       3.14968      .   S
    N7     O12       5.62737      .   S
    Zr8    O13       3.46816      .   S
    N6     O13       5.82503  1_554   S
    Zr8    O14       2.88865      .   S
    N5     O14       4.88461  1_455   S
    Zr8    O15       2.94318      .   S
    N0     O15       4.74149  1_554   S
    Zr8    O16       3.11138      .   S
    N1     O16       4.91718  1_554   S
    Zr8    O17       2.54332      .   S
    N5     O17       5.17148  1_455   S
    Zr8    O18       2.79955      .   S
    N6     O18       4.97270      .   S
    Zr19   O20       2.54176      .   S
    N2     O20       5.16793      .   S
    Zr19   O21       2.99736      .   S
    N1     O21       5.65047  1_654   S
    Zr19   O22       2.79922      .   S
    N5     O22       4.91995      .   S
    Zr19   O23       2.79958      .   S
    N4     O23       4.97216      .   S
    Zr19   O24       3.01798  1_455   S
    N6     O24       5.78873      .   S
    Zr19   O25       3.46724      .   S
    N4     O25       5.82354  1_545   S
    Zr19   O26       3.15032      .   S
    N0     O26       5.62735  1_655   S
    Zr19   O27       2.88733      .   S
    N2     O27       4.88080      .   S
    Zr19   O28       3.11031      .   S
    N3     O28       4.91536  1_545   S
    Zr19   O29       2.94312      .   S
    N7     O29       4.73980  1_545   S
    Zr30   O31       2.94929      .   S
    N4     O31       4.74427  1_556   S
    Zr30   O32       3.09191      .   S
    N5     O32       4.92450  1_556   S
    Zr30   O33       2.88913      .   S
    N1     O33       4.87983  1_655   S
    Zr30   O34       2.80137      .   S
    N3     O34       4.91478      .   S
    Zr30   O35       3.01948      .   S
    N0     O35       5.78934      .   S
    Zr30   O36       2.54326      .   S
    N1     O36       5.16717  1_655   S
    Zr30   O37       2.99295      .   S
    N2     O37       5.64156  1_565   S
    Zr30   O38       3.46291      .   S
    N7     O38       5.82197  1_556   S
    Zr30   O39       3.14945      .   S
    N6     O39       5.62817      .   S
    Zr30   O40       2.80206      .   S
    N7     O40       4.97731      .   S
    Zr41   O42       3.09256      .   S
    N2     O42       4.92766  1_565   S
    Zr41   O43       2.89042      .   S
    N3     O43       4.88025      .   S
    Zr41   O44       2.94832      .   S
    N6     O44       4.74459  1_565   S
    Zr41   O45       2.54371      .   S
    N3     O45       5.16797      .   S
    Zr41   O46       3.01840  1_655   S
    N7     O46       5.78622      .   S
    Zr41   O47       2.99381      .   S
    N5     O47       5.64377  1_456   S
    Zr41   O48       2.80069      .   S
    N1     O48       4.91321      .   S
    Zr41   O49       2.80071      .   S
    N0     O49       4.97629      .   S
    Zr41   O50       3.14690      .   S
    N4     O50       5.62698  1_455   S
    Zr41   O51       3.46385      .   S
    N0     O51       5.82253  1_565   S
