# CIF file generated by openbabel 2.4.90, see http://openbabel.sf.net
data_I
_chemical_name_common ''
_cell_length_a 16.167
_cell_length_b 16.49
_cell_length_c 16.492
_cell_angle_alpha 98.472
_cell_angle_beta 93.827
_cell_angle_gamma 93.835
_space_group_name_H-M_alt 'P 1'
_space_group_name_Hall 'P 1'
loop_
    _symmetry_equiv_pos_as_xyz
    x,y,z
loop_
    _atom_site_label
    _atom_site_type_symbol
    _atom_site_fract_x
    _atom_site_fract_y
    _atom_site_fract_z
    _atom_site_occupancy
    C0      C    0.38804   0.27555   0.11093   1.000
    C1      C    0.39597   0.33236   0.35868   1.000
    C2      C    0.81485   0.06527   0.49013   1.000
    C3      C    0.11188   0.88843   0.72357   1.000
    C4      C    0.10420   0.64025   0.66591   1.000
    C5      C    0.68503   0.50964   0.93396   1.000
    C6      C    0.61186   0.72347   0.88845   1.000
    C7      C    0.60424   0.66593   0.64034   1.000
    C8      C    0.18493   0.93408   0.50977   1.000
    C9      C    0.88827   0.11065   0.27607   1.000
    C10     C    0.89589   0.35855   0.33227   1.000
    C11     C    0.31459   0.48925   0.06481   1.000
    C12     C    0.45359   0.26209   0.72633   1.000
    C13     C    0.27994   0.25836   0.51455   1.000
    C14     C    0.22633   0.10866   0.70157   1.000
    C15     C    0.43365   0.06214   0.90633   1.000
    C16     C    0.33158   0.02638   0.92463   1.000
    C17     C    0.55976   0.39002   0.52700   1.000
    C18     C    0.62371   0.38058   0.61607   1.000
    C19     C    0.08295   0.13149   0.40397   1.000
    C20     C    0.04373   0.22918   0.42502   1.000
    C21     C    0.36073   0.90867   0.34177   1.000
    C22     C    0.50557   0.84568   0.54932   1.000
    C23     C    0.61985   0.00000   0.39282   1.000
    C24     C    0.58927   0.15033   0.21124   1.000
    C25     C    0.48910   0.10383   0.17520   1.000
    C26     C    0.25069   0.70377   0.53027   1.000
    C27     C    0.31778   0.70932   0.61957   1.000
    C28     C    0.78419   0.93221   0.62224   1.000
    C29     C    0.71964   0.93391   0.70515   1.000
    C30     C    0.27770   0.07532   0.81109   1.000
    C31     C    0.49504   0.36725   0.68785   1.000
    C32     C    0.13870   0.26079   0.53276   1.000
    C33     C    0.59540   0.06750   0.31677   1.000
    C34     C    0.41777   0.78286   0.56681   1.000
    C35     C    0.61724   0.84224   0.59527   1.000
    C36     C    0.04566   0.27296   0.73693   1.000
    C37     C    0.21930   0.48461   0.73941   1.000
    C38     C    0.27307   0.29845   0.89010   1.000
    C39     C    0.06608   0.09342   0.93712   1.000
    C40     C    0.16823   0.07482   0.97245   1.000
    C41     C    0.93888   0.47199   0.60885   1.000
    C42     C    0.87505   0.38245   0.61706   1.000
    C43     C    0.41650   0.59518   0.86940   1.000
    C44     C    0.45549   0.57607   0.77150   1.000
    C45     C    0.13967   0.65766   0.09069   1.000
    C46     C    0.99439   0.45030   0.15371   1.000
    C47     C    0.88045   0.60699   0.00409   1.000
    C48     C    0.91068   0.78741   0.84834   1.000
    C49     C    0.01071   0.82409   0.89486   1.000
    C50     C    0.24917   0.46906   0.29568   1.000
    C51     C    0.18207   0.37976   0.28999   1.000
    C52     C    0.71591   0.37774   0.06576   1.000
    C53     C    0.78011   0.29444   0.06306   1.000
    C54     C    0.22206   0.18857   0.92376   1.000
    C55     C    0.00319   0.31113   0.63216   1.000
    C56     C    0.36119   0.46784   0.73825   1.000
    C57     C    0.90465   0.68283   0.93207   1.000
    C58     C    0.08219   0.43255   0.21644   1.000
    C59     C    0.88267   0.40344   0.15601   1.000
    C60     C    0.54570   0.73702   0.27305   1.000
    C61     C    0.71929   0.73967   0.48473   1.000
    C62     C    0.77303   0.89032   0.29852   1.000
    C63     C    0.56599   0.93715   0.09347   1.000
    C64     C    0.66814   0.97234   0.07467   1.000
    C65     C    0.43891   0.60893   0.47213   1.000
    C66     C    0.37503   0.61726   0.38268   1.000
    C67     C    0.91644   0.86939   0.59533   1.000
    C68     C    0.95537   0.77148   0.57602   1.000
    C69     C    0.63951   0.09063   0.65781   1.000
    C70     C    0.49431   0.15381   0.45055   1.000
    C71     C    0.38034   0.00397   0.60704   1.000
    C72     C    0.41055   0.84809   0.78738   1.000
    C73     C    0.51048   0.89470   0.82419   1.000
    C74     C    0.74915   0.29573   0.46930   1.000
    C75     C    0.68216   0.28988   0.37992   1.000
    C76     C    0.21584   0.06588   0.37796   1.000
    C77     C    0.28005   0.06298   0.29466   1.000
    C78     C    0.72199   0.92386   0.18854   1.000
    C79     C    0.50314   0.63259   0.31134   1.000
    C80     C    0.86107   0.73845   0.46781   1.000
    C81     C    0.40452   0.93198   0.68297   1.000
    C82     C    0.58224   0.21632   0.43264   1.000
    C83     C    0.38263   0.15606   0.40361   1.000
    C84     C    0.95356   0.72625   0.26209   1.000
    C85     C    0.77982   0.51446   0.25831   1.000
    C86     C    0.72635   0.70155   0.10866   1.000
    C87     C    0.93363   0.90640   0.06229   1.000
    C88     C    0.83156   0.92469   0.02652   1.000
    C89     C    0.05969   0.52694   0.39005   1.000
    C90     C    0.12366   0.61601   0.38055   1.000
    C91     C    0.58295   0.40369   0.13156   1.000
    C92     C    0.54296   0.42539   0.22877   1.000
    C93     C    0.86072   0.34165   0.90859   1.000
    C94     C    0.00558   0.54927   0.84564   1.000
    C95     C    0.11983   0.39269   0.00000   1.000
    C96     C    0.08918   0.21096   0.15011   1.000
    C97     C    0.98895   0.17499   0.10365   1.000
    C98     C    0.75070   0.53021   0.70378   1.000
    C99     C    0.81783   0.61948   0.70925   1.000
    C100    C    0.28419   0.62218   0.93214   1.000
    C101    C    0.21968   0.70512   0.93389   1.000
    C102    C    0.77767   0.81112   0.07540   1.000
    C103    C    0.00000   0.68780   0.36725   1.000
    C104    C    0.63820   0.53277   0.26044   1.000
    C105    C    0.09530   0.31667   0.06753   1.000
    C106    C    0.91780   0.56674   0.78282   1.000
    C107    C    0.11721   0.59530   0.84222   1.000
    C108    C    0.34300   0.18553   0.72277   1.000
    C109    C    0.39432   0.24293   0.69096   1.000
    C110    C    0.37213   0.26958   0.61664   1.000
    C111    C    0.29529   0.24008   0.57439   1.000
    C112    C    0.24298   0.18283   0.60574   1.000
    C113    C    0.26747   0.15432   0.67929   1.000
    C114    C    0.37800   0.16205   0.80255   1.000
    C115    C    0.36963   0.07983   0.91104   1.000
    C116    C    0.37153   0.14815   0.98498   1.000
    C117    C    0.43236   0.32093   0.57652   1.000
    C118    C    0.56595   0.40490   0.59432   1.000
    C119    C    0.57590   0.49858   0.61612   1.000
    C120    C    0.16480   0.14655   0.55582   1.000
    C121    C    0.05752   0.17401   0.45199   1.000
    C122    C    0.97449   0.13559   0.47143   1.000
    C123    C    0.48919   0.95604   0.35740   1.000
    C124    C    0.41983   0.90924   0.37768   1.000
    C125    C    0.42510   0.86801   0.44624   1.000
    C126    C    0.50120   0.87289   0.49327   1.000
    C127    C    0.57103   0.91770   0.47305   1.000
    C128    C    0.56459   0.95897   0.40491   1.000
    C129    C    0.47564   0.01009   0.29204   1.000
    C130    C    0.52917   0.12827   0.23100   1.000
    C131    C    0.49143   0.20383   0.27448   1.000
    C132    C    0.34828   0.82804   0.47502   1.000
    C133    C    0.29196   0.74661   0.57536   1.000
    C134    C    0.23775   0.80622   0.62225   1.000
    C135    C    0.65028   0.93140   0.52683   1.000
    C136    C    0.73397   0.89767   0.64690   1.000
    C137    C    0.76376   0.81448   0.66481   1.000
    C138    C    0.15637   0.27687   0.81336   1.000
    C139    C    0.10493   0.30841   0.75584   1.000
    C140    C    0.12709   0.38251   0.72870   1.000
    C141    C    0.20399   0.42487   0.75796   1.000
    C142    C    0.25629   0.39385   0.81544   1.000
    C143    C    0.23188   0.32046   0.84430   1.000
    C144    C    0.12155   0.19721   0.83722   1.000
    C145    C    0.13002   0.08861   0.91922   1.000
    C146    C    0.12786   0.01485   0.85063   1.000
    C147    C    0.06691   0.42236   0.67699   1.000
    C148    C    0.93302   0.40470   0.59346   1.000
    C149    C    0.92395   0.38362   0.49966   1.000
    C150    C    0.33428   0.44388   0.85203   1.000
    C151    C    0.44196   0.54793   0.82603   1.000
    C152    C    0.52518   0.52837   0.86397   1.000
    C153    C    0.01118   0.64225   0.04326   1.000
    C154    C    0.08049   0.62188   0.09012   1.000
    C155    C    0.07506   0.55333   0.13140   1.000
    C156    C    0.99888   0.50633   0.12645   1.000
    C157    C    0.92914   0.52666   0.08159   1.000
    C158    C    0.93571   0.59484   0.04041   1.000
    C159    C    0.02473   0.70738   0.98888   1.000
    C160    C    0.97087   0.76805   0.87064   1.000
    C161    C    0.00891   0.72437   0.79536   1.000
    C162    C    0.15180   0.52444   0.17144   1.000
    C163    C    0.20798   0.42400   0.25277   1.000
    C164    C    0.26226   0.37711   0.19318   1.000
    C165    C    0.84985   0.47296   0.06762   1.000
    C166    C    0.76600   0.35247   0.09987   1.000
    C167    C    0.73612   0.33375   0.18268   1.000
    C168    C    0.65638   0.81349   0.27695   1.000
    C169    C    0.60495   0.75597   0.30852   1.000
    C170    C    0.62710   0.72889   0.38264   1.000
    C171    C    0.70398   0.75820   0.42498   1.000
    C172    C    0.75627   0.81571   0.39395   1.000
    C173    C    0.73187   0.84452   0.32055   1.000
    C174    C    0.62154   0.83727   0.19727   1.000
    C175    C    0.62989   0.91917   0.08859   1.000
    C176    C    0.62759   0.85047   0.01492   1.000
    C177    C    0.56694   0.67715   0.42251   1.000
    C178    C    0.43301   0.59363   0.40484   1.000
    C179    C    0.42397   0.49983   0.38365   1.000
    C180    C    0.83426   0.85230   0.44399   1.000
    C181    C    0.94188   0.82609   0.54800   1.000
    C182    C    0.02515   0.86404   0.52849   1.000
    C183    C    0.51106   0.04317   0.64235   1.000
    C184    C    0.58034   0.09006   0.62203   1.000
    C185    C    0.57494   0.13140   0.55352   1.000
    C186    C    0.49880   0.12647   0.50653   1.000
    C187    C    0.42906   0.08156   0.52680   1.000
    C188    C    0.43560   0.04031   0.59494   1.000
    C189    C    0.52458   0.98878   0.70745   1.000
    C190    C    0.47075   0.87050   0.76810   1.000
    C191    C    0.50888   0.79530   0.72440   1.000
    C192    C    0.65170   0.17146   0.52471   1.000
    C193    C    0.70803   0.25273   0.42424   1.000
    C194    C    0.76242   0.19313   0.37753   1.000
    C195    C    0.34979   0.06764   0.47310   1.000
    C196    C    0.26597   0.09989   0.35264   1.000
    C197    C    0.23618   0.18269   0.33380   1.000
    C198    C    0.84296   0.72276   0.18558   1.000
    C199    C    0.89427   0.69092   0.24295   1.000
    C200    C    0.87205   0.61658   0.26959   1.000
    C201    C    0.79519   0.57433   0.24006   1.000
    C202    C    0.74292   0.60571   0.18283   1.000
    C203    C    0.76745   0.67928   0.15435   1.000
    C204    C    0.87797   0.80256   0.16212   1.000
    C205    C    0.86960   0.91110   0.07995   1.000
    C206    C    0.87150   0.98502   0.14829   1.000
    C207    C    0.93229   0.57646   0.32092   1.000
    C208    C    0.06589   0.59428   0.40490   1.000
    C209    C    0.07587   0.61610   0.49857   1.000
    C210    C    0.66479   0.55580   0.14635   1.000
    C211    C    0.55723   0.45199   0.17351   1.000
    C212    C    0.47446   0.47106   0.13429   1.000
    C213    C    0.00000   0.35731   0.95597   1.000
    C214    C    0.91981   0.37759   0.90917   1.000
    C215    C    0.92508   0.44616   0.86796   1.000
    C216    C    0.00121   0.49320   0.87284   1.000
    C217    C    0.07103   0.47298   0.91763   1.000
    C218    C    0.06459   0.40483   0.95889   1.000
    C219    C    0.97557   0.29189   0.00998   1.000
    C220    C    0.02906   0.23076   0.12815   1.000
    C221    C    0.99137   0.27410   0.20381   1.000
    C222    C    0.84829   0.47495   0.82799   1.000
    C223    C    0.79200   0.57530   0.74658   1.000
    C224    C    0.73785   0.62224   0.80621   1.000
    C225    C    0.15027   0.52677   0.93129   1.000
    C226    C    0.23399   0.64687   0.89762   1.000
    C227    C    0.26376   0.66482   0.81444   1.000
    C228    C    0.33614   0.10138   0.83408   1.000
    C229    C    0.49533   0.36427   0.62565   1.000
    C230    C    0.11981   0.19981   0.52009   1.000
    C231    C    0.54092   0.06414   0.28128   1.000
    C232    C    0.35990   0.78407   0.53731   1.000
    C233    C    0.66073   0.88827   0.58886   1.000
    C234    C    0.16362   0.16562   0.89773   1.000
    C235    C    0.00337   0.37329   0.63448   1.000
    C236    C    0.37974   0.47993   0.79933   1.000
    C237    C    0.95923   0.71810   0.93506   1.000
    C238    C    0.14006   0.46207   0.21530   1.000
    C239    C    0.83944   0.41028   0.10990   1.000
    C240    C    0.66356   0.89777   0.16560   1.000
    C241    C    0.50335   0.63472   0.37347   1.000
    C242    C    0.87967   0.79952   0.47998   1.000
    C243    C    0.45910   0.93496   0.71821   1.000
    C244    C    0.64007   0.21524   0.46226   1.000
    C245    C    0.33940   0.10994   0.41044   1.000
    C246    C    0.83610   0.83411   0.10148   1.000
    C247    C    0.00000   0.62560   0.36427   1.000
    C248    C    0.61947   0.52015   0.19942   1.000
    C249    C    0.04080   0.28119   0.06413   1.000
    C250    C    0.85993   0.53722   0.78401   1.000
    C251    C    0.16072   0.58884   0.88821   1.000
    C252    C    0.44409   0.19743   0.83682   1.000
    C253    C    0.31976   0.20461   0.98569   1.000
    C254    C    0.42362   0.14622   0.04535   1.000
    C255    C    0.42653   0.31973   0.50021   1.000
    C256    C    0.64542   0.53161   0.60082   1.000
    C257    C    0.51728   0.53833   0.64595   1.000
    C258    C    0.14380   0.07084   0.54444   1.000
    C259    C    0.94755   0.14556   0.54163   1.000
    C260    C    0.93102   0.09401   0.40795   1.000
    C261    C    0.40731   0.00848   0.25314   1.000
    C262    C    0.49279   0.21833   0.35267   1.000
    C263    C    0.45875   0.25263   0.23067   1.000
    C264    C    0.27638   0.83665   0.44462   1.000
    C265    C    0.17822   0.77437   0.65661   1.000
    C266    C    0.25093   0.88414   0.62593   1.000
    C267    C    0.70471   0.00000   0.51393   1.000
    C268    C    0.71603   0.75071   0.63224   1.000
    C269    C    0.82984   0.81604   0.70826   1.000
    C270    C    0.05533   0.16293   0.80217   1.000
    C271    C    0.18022   0.01394   0.79472   1.000
    C272    C    0.07512   0.95479   0.85175   1.000
    C273    C    0.07331   0.49852   0.67710   1.000
    C274    C    0.85481   0.39926   0.46609   1.000
    C275    C    0.98287   0.35389   0.46034   1.000
    C276    C    0.35473   0.45499   0.92782   1.000
    C277    C    0.55210   0.45818   0.85415   1.000
    C278    C    0.56884   0.59193   0.90520   1.000
    C279    C    0.09310   0.74605   0.00000   1.000
    C280    C    0.00761   0.64616   0.78110   1.000
    C281    C    0.04172   0.76799   0.74649   1.000
    C282    C    0.22376   0.55481   0.16299   1.000
    C283    C    0.32215   0.34332   0.22512   1.000
    C284    C    0.24870   0.37285   0.11524   1.000
    C285    C    0.79527   0.48645   0.01417   1.000
    C286    C    0.78447   0.36461   0.24654   1.000
    C287    C    0.66933   0.29132   0.18073   1.000
    C288    C    0.55535   0.80214   0.16300   1.000
    C289    C    0.68018   0.79475   0.01391   1.000
    C290    C    0.57456   0.85132   0.95504   1.000
    C291    C    0.57338   0.67714   0.49863   1.000
    C292    C    0.35487   0.46618   0.39932   1.000
    C293    C    0.48289   0.46061   0.35380   1.000
    C294    C    0.85475   0.92810   0.45516   1.000
    C295    C    0.05211   0.85420   0.45832   1.000
    C296    C    0.06876   0.90531   0.59206   1.000
    C297    C    0.59298   0.00000   0.74609   1.000
    C298    C    0.50759   0.78107   0.64620   1.000
    C299    C    0.54177   0.74645   0.76800   1.000
    C300    C    0.72361   0.16309   0.55524   1.000
    C301    C    0.82209   0.22497   0.34335   1.000
    C302    C    0.74916   0.11522   0.37386   1.000
    C303    C    0.29518   0.01419   0.48654   1.000
    C304    C    0.28454   0.24657   0.36465   1.000
    C305    C    0.16945   0.18073   0.29130   1.000
    C306    C    0.94407   0.83683   0.19750   1.000
    C307    C    0.81971   0.98571   0.20474   1.000
    C308    C    0.92362   0.04538   0.14643   1.000
    C309    C    0.92649   0.50013   0.31969   1.000
    C310    C    0.14539   0.60080   0.53159   1.000
    C311    C    0.01728   0.64595   0.53834   1.000
    C312    C    0.64415   0.54437   0.07058   1.000
    C313    C    0.44776   0.54138   0.14267   1.000
    C314    C    0.43084   0.40709   0.09380   1.000
    C315    C    0.90726   0.25292   0.00819   1.000
    C316    C    0.99266   0.35230   0.21835   1.000
    C317    C    0.95885   0.23022   0.25265   1.000
    C318    C    0.77638   0.44454   0.83660   1.000
    C319    C    0.67835   0.65665   0.77438   1.000
    C320    C    0.75102   0.62587   0.88411   1.000
    C321    C    0.20472   0.51385   0.00000   1.000
    C322    C    0.21602   0.63226   0.75068   1.000
    C323    C    0.32985   0.70826   0.81600   1.000
    O324    O    0.25965   0.50155   0.03240   1.000
    O325    O    0.17749   0.52031   0.96564   1.000
    O326    O    0.05891   0.72671   0.99444   1.000
    O327    O    0.09221   0.39876   0.97945   1.000
    O328    O    0.90808   0.60092   0.02225   1.000
    O329    O    0.94142   0.27241   0.00909   1.000
    O330    O    0.00819   0.28654   0.03705   1.000
    O331    O    0.98779   0.32460   0.98297   1.000
    O332    O    0.65389   0.82261   0.01442   1.000
    O333    O    0.82256   0.47970   0.04090   1.000
    O334    O    0.74015   0.49804   0.97406   1.000
    O335    O    0.62874   0.88482   0.05176   1.000
    O336    O    0.60108   0.85090   0.98498   1.000
    O337    O    0.85058   0.91790   0.05323   1.000
    O338    O    0.97344   0.61855   0.04184   1.000
    O339    O    0.93242   0.56075   0.06100   1.000
    O340    O    0.04583   0.63206   0.06669   1.000
    O341    O    0.01795   0.67481   0.01607   1.000
    O342    O    0.39757   0.14719   0.01516   1.000
    O343    O    0.90161   0.90875   0.07112   1.000
    O344    O    0.77306   0.32346   0.08146   1.000
    O345    O    0.06805   0.29893   0.06583   1.000
    O346    O    0.03493   0.25597   0.09614   1.000
    O347    O    0.33466   0.47212   0.99631   1.000
    O348    O    0.74096   0.36511   0.08282   1.000
    O349    O    0.88949   0.49981   0.07461   1.000
    O350    O    0.84465   0.44162   0.08876   1.000
    O351    O    0.65447   0.55008   0.10847   1.000
    O352    O    0.66459   0.52700   0.00227   1.000
    O353    O    0.64901   0.94576   0.08163   1.000
    O354    O    0.80688   0.82262   0.08844   1.000
    O355    O    0.85285   0.87261   0.09072   1.000
    O356    O    0.87055   0.94806   0.11412   1.000
    O357    O    0.96401   0.51650   0.10402   1.000
    O358    O    0.59794   0.92816   0.09103   1.000
    O359    O    0.64673   0.90847   0.12710   1.000
    O360    O    0.11008   0.63977   0.09040   1.000
    O361    O    0.07777   0.58760   0.11076   1.000
    O362    O    0.40944   0.34132   0.10237   1.000
    O363    O    0.45265   0.43908   0.11405   1.000
    O364    O    0.80272   0.38138   0.10489   1.000
    O365    O    0.75106   0.34311   0.14127   1.000
    O366    O    0.85703   0.81834   0.13180   1.000
    O367    O    0.00901   0.20287   0.11590   1.000
    O368    O    0.74690   0.69042   0.13151   1.000
    O369    O    0.86106   0.40686   0.13295   1.000
    O370    O    0.42340   0.26409   0.17080   1.000
    O371    O    0.25548   0.37498   0.15421   1.000
    O372    O    0.03697   0.52983   0.12892   1.000
    O373    O    0.99663   0.47832   0.14008   1.000
    O374    O    0.05912   0.22086   0.13913   1.000
    O375    O    0.01022   0.25243   0.16598   1.000
    O376    O    0.11343   0.53888   0.15141   1.000
    O377    O    0.57009   0.42784   0.15254   1.000
    O378    O    0.46111   0.50622   0.13848   1.000
    O379    O    0.51585   0.46153   0.15390   1.000
    O380    O    0.70385   0.58075   0.16459   1.000
    O381    O    0.64213   0.53797   0.17289   1.000
    O382    O    0.89756   0.01520   0.14736   1.000
    O383    O    0.84560   0.98536   0.17652   1.000
    O384    O    0.75518   0.64250   0.16859   1.000
    O385    O    0.80521   0.70102   0.16996   1.000
    O386    O    0.86047   0.76266   0.17385   1.000
    O387    O    0.91102   0.81970   0.17981   1.000
    O388    O    0.18778   0.53963   0.16721   1.000
    O389    O    0.58844   0.81971   0.18013   1.000
    O390    O    0.69278   0.91081   0.17707   1.000
    O391    O    0.64255   0.86752   0.18143   1.000
    O392    O    0.14593   0.49325   0.19337   1.000
    O393    O    0.58835   0.48607   0.18647   1.000
    O394    O    0.55010   0.43869   0.20114   1.000
    O395    O    0.50913   0.11605   0.20310   1.000
    O396    O    0.70272   0.31254   0.18170   1.000
    O397    O    0.76029   0.34918   0.21461   1.000
    O398    O    0.76906   0.59002   0.21144   1.000
    O399    O    0.86862   0.70684   0.21426   1.000
    O400    O    0.29220   0.36022   0.20915   1.000
    O401    O    0.23512   0.40055   0.22298   1.000
    O402    O    0.63896   0.82538   0.23711   1.000
    O403    O    0.62883   0.52646   0.22993   1.000
    O404    O    0.99202   0.31320   0.21108   1.000
    O405    O    0.97511   0.25216   0.22823   1.000
    O406    O    0.55922   0.13930   0.22112   1.000
    O407    O    0.11112   0.44731   0.21587   1.000
    O408    O    0.17402   0.44303   0.23403   1.000
    O409    O    0.47509   0.22823   0.25257   1.000
    O410    O    0.51030   0.16605   0.25274   1.000
    O411    O    0.53505   0.09620   0.25614   1.000
    O412    O    0.78751   0.54440   0.24919   1.000
    O413    O    0.83362   0.59546   0.25482   1.000
    O414    O    0.92392   0.70858   0.25252   1.000
    O415    O    0.88316   0.65375   0.25627   1.000
    O416    O    0.84018   0.36158   0.28941   1.000
    O417    O    0.92356   0.17043   0.26436   1.000
    O418    O    0.19503   0.40188   0.27138   1.000
    O419    O    0.22858   0.44653   0.27422   1.000
    O420    O    0.44148   0.00929   0.27259   1.000
    O421    O    0.90217   0.59652   0.29525   1.000
    O422    O    0.57533   0.74650   0.29078   1.000
    O423    O    0.49211   0.21108   0.31357   1.000
    O424    O    0.90964   0.10233   0.34201   1.000
    O425    O    0.63067   0.78473   0.29273   1.000
    O426    O    0.69412   0.82900   0.29875   1.000
    O427    O    0.50828   0.03711   0.28666   1.000
    O428    O    0.56816   0.06582   0.29902   1.000
    O429    O    0.20281   0.18171   0.31255   1.000
    O430    O    0.48241   0.98306   0.32472   1.000
    O431    O    0.27301   0.08143   0.32365   1.000
    O432    O    0.75245   0.86742   0.30953   1.000
    O433    O    0.61603   0.74243   0.34558   1.000
    O434    O    0.50325   0.63365   0.34240   1.000
    O435    O    0.92939   0.53829   0.32031   1.000
    O436    O    0.74407   0.83011   0.35725   1.000
    O437    O    0.96614   0.60103   0.34260   1.000
    O438    O    0.87535   0.37891   0.39918   1.000
    O439    O    0.25107   0.14129   0.34322   1.000
    O440    O    0.26036   0.21463   0.34923   1.000
    O441    O    0.39028   0.90895   0.35973   1.000
    O442    O    0.79225   0.20905   0.36044   1.000
    O443    O    0.24090   0.08288   0.36530   1.000
    O444    O    0.30269   0.10492   0.38154   1.000
    O445    O    0.45343   0.48022   0.36872   1.000
    O446    O    0.45451   0.93264   0.36754   1.000
    O447    O    0.52689   0.95750   0.38116   1.000
    O448    O    0.34026   0.28947   0.36166   1.000
    O449    O    0.37542   0.39927   0.37900   1.000
    O450    O    0.00000   0.65670   0.36576   1.000
    O451    O    0.03295   0.60994   0.38459   1.000
    O452    O    0.46818   0.61418   0.38915   1.000
    O453    O    0.53515   0.65594   0.39799   1.000
    O454    O    0.75579   0.15417   0.37570   1.000
    O455    O    0.73523   0.22293   0.40088   1.000
    O456    O    0.42246   0.88862   0.41196   1.000
    O457    O    0.69510   0.27131   0.40208   1.000
    O458    O    0.09477   0.60514   0.39272   1.000
    O459    O    0.59702   0.70302   0.40258   1.000
    O460    O    0.66554   0.74355   0.40381   1.000
    O461    O    0.40402   0.60545   0.39376   1.000
    O462    O    0.38942   0.48301   0.39148   1.000
    O463    O    0.42849   0.54673   0.39425   1.000
    O464    O    0.06279   0.56061   0.39747   1.000
    O465    O    0.59222   0.97949   0.39886   1.000
    O466    O    0.73013   0.78695   0.40947   1.000
    O467    O    0.79526   0.83400   0.41897   1.000
    O468    O    0.36102   0.13300   0.40703   1.000
    O469    O    0.07024   0.15275   0.42798   1.000
    O470    O    0.43596   0.60128   0.43849   1.000
    O471    O    0.07088   0.60519   0.45173   1.000
    O472    O    0.56781   0.93834   0.43898   1.000
    O473    O    0.95276   0.11480   0.43969   1.000
    O474    O    0.34460   0.08879   0.44177   1.000
    O475    O    0.57016   0.67715   0.46057   1.000
    O476    O    0.67405   0.23399   0.44325   1.000
    O477    O    0.72859   0.27423   0.44677   1.000
    O478    O    0.71164   0.74894   0.45486   1.000
    O479    O    0.05063   0.20159   0.43850   1.000
    O480    O    0.61115   0.21578   0.44745   1.000
    O481    O    0.84451   0.89020   0.44958   1.000
    O482    O    0.85697   0.82591   0.46199   1.000
    O483    O    0.31233   0.83234   0.45982   1.000
    O484    O    0.38668   0.84802   0.46063   1.000
    O485    O    0.46315   0.87045   0.46975   1.000
    O486    O    0.49656   0.14014   0.47854   1.000
    O487    O    0.01601   0.15480   0.46171   1.000
    O488    O    0.08867   0.18691   0.48604   1.000
    O489    O    0.83480   0.99669   0.47264   1.000
    O490    O    0.03863   0.85912   0.49340   1.000
    O491    O    0.95341   0.36876   0.48000   1.000
    O492    O    0.64589   0.19335   0.49348   1.000
    O493    O    0.88938   0.39144   0.48287   1.000
    O494    O    0.87037   0.76899   0.47389   1.000
    O495    O    0.96102   0.14058   0.50653   1.000
    O496    O    0.53612   0.89529   0.48316   1.000
    O497    O    0.61066   0.92455   0.49994   1.000
    O498    O    0.32248   0.04091   0.47982   1.000
    O499    O    0.38942   0.07460   0.49995   1.000
    O500    O    0.35409   0.80605   0.50617   1.000
    O501    O    0.91078   0.81281   0.51399   1.000
    O502    O    0.24006   0.97413   0.49816   1.000
    O503    O    0.75978   0.03264   0.50203   1.000
    O504    O    0.50338   0.85929   0.52129   1.000
    O505    O    0.11063   0.60845   0.51508   1.000
    O506    O    0.04657   0.63102   0.51845   1.000
    O507    O    0.92848   0.39416   0.54656   1.000
    O508    O    0.42945   0.32033   0.53837   1.000
    O509    O    0.46393   0.10402   0.51667   1.000
    O510    O    0.53687   0.12893   0.53003   1.000
    O511    O    0.16437   0.00246   0.52711   1.000
    O512    O    0.67750   0.96570   0.52038   1.000
    O513    O    0.28762   0.24922   0.54447   1.000
    O514    O    0.12926   0.23030   0.52642   1.000
    O515    O    0.14230   0.17318   0.53795   1.000
    O516    O    0.61332   0.15143   0.53911   1.000
    O517    O    0.68766   0.16728   0.53997   1.000
    O518    O    0.43233   0.06094   0.56087   1.000
    O519    O    0.65551   0.90983   0.55784   1.000
    O520    O    0.56285   0.39746   0.56066   1.000
    O521    O    0.98351   0.84507   0.53824   1.000
    O522    O    0.04695   0.88468   0.56028   1.000
    O523    O    0.27132   0.72519   0.55282   1.000
    O524    O    0.12480   0.62053   0.59875   1.000
    O525    O    0.38884   0.78347   0.55206   1.000
    O526    O    0.32593   0.76534   0.55634   1.000
    O527    O    0.15430   0.10869   0.55013   1.000
    O528    O    0.94863   0.79878   0.56201   1.000
    O529    O    0.92916   0.84774   0.57166   1.000
    O530    O    0.57764   0.11073   0.58777   1.000
    O531    O    0.20389   0.16469   0.58078   1.000
    O532    O    0.26914   0.21145   0.59007   1.000
    O533    O    0.33371   0.25483   0.59552   1.000
    O534    O    0.30487   0.72796   0.59746   1.000
    O535    O    0.26485   0.77642   0.59881   1.000
    O536    O    0.40225   0.29526   0.59658   1.000
    O537    O    0.46384   0.34260   0.60109   1.000
    O538    O    0.63899   0.86525   0.59207   1.000
    O539    O    0.69735   0.89297   0.61788   1.000
    O540    O    0.09032   0.89687   0.65782   1.000
    O541    O    0.93595   0.43834   0.60115   1.000
    O542    O    0.90403   0.39357   0.60526   1.000
    O543    O    0.96819   0.38899   0.61397   1.000
    O544    O    0.59483   0.39274   0.60520   1.000
    O545    O    0.57092   0.45174   0.60522   1.000
    O546    O    0.53064   0.38458   0.60999   1.000
    O547    O    0.40797   0.02214   0.60099   1.000
    O548    O    0.47333   0.04174   0.61864   1.000
    O549    O    0.61066   0.51510   0.60847   1.000
    O550    O    0.62483   0.59877   0.62058   1.000
    O551    O    0.25523   0.16858   0.64251   1.000
    O552    O    0.54659   0.51845   0.63103   1.000
    O553    O    0.38323   0.25626   0.65380   1.000
    O554    O    0.54570   0.06661   0.63219   1.000
    O555    O    0.60992   0.09035   0.63992   1.000
    O556    O    0.75908   0.91494   0.63457   1.000
    O557    O    0.24434   0.84518   0.62409   1.000
    O558    O    0.20799   0.79030   0.63943   1.000
    O559    O    0.49518   0.36576   0.65675   1.000
    O560    O    0.00328   0.34221   0.63332   1.000
    O561    O    0.66013   0.70832   0.63629   1.000
    O562    O    0.73989   0.78259   0.64853   1.000
    O563    O    0.03514   0.39783   0.65573   1.000
    O564    O    0.51782   0.01597   0.67490   1.000
    O565    O    0.50823   0.78819   0.68530   1.000
    O566    O    0.74887   0.85608   0.65586   1.000
    O567    O    0.72681   0.91579   0.67602   1.000
    O568    O    0.79680   0.81526   0.68654   1.000
    O569    O    0.16011   0.63625   0.70830   1.000
    O570    O    0.07011   0.46044   0.67704   1.000
    O571    O    0.09700   0.40244   0.70285   1.000
    O572    O    0.24690   0.13149   0.69043   1.000
    O573    O    0.30523   0.16993   0.70103   1.000
    O574    O    0.43181   0.93347   0.70059   1.000
    O575    O    0.36866   0.21423   0.70687   1.000
    O576    O    0.42396   0.25251   0.70865   1.000
    O577    O    0.77135   0.55275   0.72518   1.000
    O578    O    0.49184   0.96187   0.71283   1.000
    O579    O    0.55878   0.99439   0.72677   1.000
    O580    O    0.80491   0.59739   0.72792   1.000
    O581    O    0.46493   0.90273   0.74315   1.000
    O582    O    0.36050   0.17379   0.76266   1.000
    O583    O    0.07680   0.82821   0.73503   1.000
    O584    O    0.52532   0.77087   0.74620   1.000
    O585    O    0.48982   0.83290   0.74625   1.000
    O586    O    0.11601   0.34546   0.74227   1.000
    O587    O    0.16554   0.40369   0.74333   1.000
    O588    O    0.07529   0.29068   0.74639   1.000
    O589    O    0.37047   0.47388   0.76879   1.000
    O590    O    0.21164   0.45474   0.74869   1.000
    O591    O    0.02531   0.74618   0.77092   1.000
    O592    O    0.82596   0.55626   0.76529   1.000
    O593    O    0.76492   0.59877   0.77640   1.000
    O594    O    0.23989   0.64854   0.78256   1.000
    O595    O    0.13065   0.29264   0.78460   1.000
    O596    O    0.23014   0.40936   0.78670   1.000
    O597    O    0.57681   0.73496   0.82822   1.000
    O598    O    0.44065   0.85930   0.77774   1.000
    O599    O    0.49062   0.88260   0.79614   1.000
    O600    O    0.44872   0.56200   0.79877   1.000
    O601    O    0.70810   0.63945   0.79030   1.000
    O602    O    0.00826   0.68527   0.78823   1.000
    O603    O    0.88887   0.55198   0.78341   1.000
    O604    O    0.85411   0.50609   0.80600   1.000
    O605    O    0.15404   0.01440   0.82268   1.000
    O606    O    0.98989   0.74621   0.83300   1.000
    O607    O    0.41085   0.51393   0.81268   1.000
    O608    O    0.35701   0.46190   0.82568   1.000
    O609    O    0.08844   0.18007   0.81970   1.000
    O610    O    0.35707   0.13171   0.81832   1.000
    O611    O    0.41105   0.17974   0.81968   1.000
    O612    O    0.74443   0.62405   0.84516   1.000
    O613    O    0.30692   0.08835   0.82258   1.000
    O614    O    0.13896   0.23704   0.82529   1.000
    O615    O    0.19413   0.29866   0.82883   1.000
    O616    O    0.29680   0.68654   0.81522   1.000
    O617    O    0.24887   0.65584   0.85603   1.000
    O618    O    0.24409   0.35716   0.82987   1.000
    O619    O    0.29528   0.41886   0.83373   1.000
    O620    O    0.48357   0.53815   0.84500   1.000
    O621    O    0.42923   0.57156   0.84772   1.000
    O622    O    0.81233   0.45975   0.83229   1.000
    O623    O    0.88668   0.46055   0.84798   1.000
    O624    O    0.35288   0.09060   0.87256   1.000
    O625    O    0.14258   0.18141   0.86748   1.000
    O626    O    0.13897   0.59207   0.86522   1.000
    O627    O    0.25247   0.30946   0.86720   1.000
    O628    O    0.00340   0.52123   0.85924   1.000
    O629    O    0.94077   0.77773   0.85949   1.000
    O630    O    0.10149   0.98482   0.85119   1.000
    O631    O    0.12894   0.05173   0.88493   1.000
    O632    O    0.34451   0.44943   0.88992   1.000
    O633    O    0.53864   0.49327   0.85906   1.000
    O634    O    0.54701   0.56015   0.88458   1.000
    O635    O    0.96315   0.46968   0.87040   1.000
    O636    O    0.92244   0.41187   0.88856   1.000
    O637    O    0.99079   0.79607   0.88275   1.000
    O638    O    0.96505   0.74308   0.90285   1.000
    O639    O    0.03612   0.48309   0.89523   1.000
    O640    O    0.19735   0.61785   0.89292   1.000
    O641    O    0.15549   0.55781   0.90975   1.000
    O642    O    0.59035   0.65770   0.89682   1.000
    O643    O    0.25909   0.63452   0.91488   1.000
    O644    O    0.22684   0.67599   0.91575   1.000
    O645    O    0.14682   0.12711   0.90848   1.000
    O646    O    0.19284   0.17709   0.91075   1.000
    O647    O    0.40164   0.07098   0.90869   1.000
    O648    O    0.89026   0.35962   0.90888   1.000
    O649    O    0.95990   0.36745   0.93257   1.000
    O650    O    0.35060   0.05310   0.91783   1.000
    O651    O    0.37058   0.11399   0.94801   1.000
    O652    O    0.11065   0.49988   0.92446   1.000
    O653    O    0.06781   0.43891   0.93826   1.000
    O654    O    0.09805   0.09102   0.92817   1.000
    O655    O    0.14912   0.08171   0.94584   1.000
    O656    O    0.93194   0.70047   0.93356   1.000
    O657    O    0.99198   0.71274   0.96197   1.000
    O658    O    0.03229   0.38107   0.95743   1.000
    O659    O    0.34564   0.17638   0.98533   1.000
    O660    O    0.35390   0.24008   0.04831   1.000
    O661    O    0.40583   0.21089   0.07814   1.000
    O662    O    0.41125   0.32605   0.42944   1.000
    O663    O    0.56076   0.60213   0.64314   1.000
    O664    O    0.88120   0.10542   0.51588   1.000
    O665    O    0.87293   0.07964   0.44904   1.000
    O666    O    0.44438   0.27534   0.35567   1.000
    O667    O    0.42736   0.29250   0.29468   1.000
    O668    O    0.23066   0.88536   0.47720   1.000
    O669    O    0.14505   0.83140   0.69009   1.000
    O670    O    0.14121   0.70731   0.66126   1.000
    O671    O    0.18141   0.88629   0.67475   1.000
    O672    O    0.21793   0.90911   0.56785   1.000
    O673    O    0.14605   0.95118   0.75915   1.000
    O674    O    0.09350   0.92161   0.78766   1.000
    O675    O    0.08876   0.56938   0.67151   1.000
    O676    O    0.93938   0.35622   0.39631   1.000
    O677    O    0.61857   0.48391   0.89406   1.000
    O678    O    0.62693   0.55078   0.91958   1.000
    O679    O    0.05590   0.64321   0.72350   1.000
    O680    O    0.07296   0.70412   0.70620   1.000
    O681    O    0.26917   0.52203   0.11390   1.000
    O682    O    0.35509   0.30943   0.16803   1.000
    O683    O    0.35906   0.33784   0.29190   1.000
    O684    O    0.31837   0.32420   0.11309   1.000
    O685    O    0.28164   0.43105   0.09002   1.000
    O686    O    0.64602   0.75911   0.95118   1.000
    O687    O    0.59321   0.78740   0.92174   1.000
    O688    O    0.58881   0.67154   0.56949   1.000
    O689    O    0.43943   0.39649   0.35624   1.000
    O690    O    0.11852   0.89414   0.48405   1.000
    O691    O    0.12685   0.91969   0.55092   1.000
    O692    O    0.55591   0.72350   0.64327   1.000
    O693    O    0.57300   0.70619   0.70417   1.000
    O694    O    0.76923   0.11418   0.52268   1.000
    O695    O    0.85518   0.16781   0.30971   1.000
    O696    O    0.85899   0.29176   0.33781   1.000
    O697    O    0.78200   0.09024   0.43199   1.000
    O698    O    0.81872   0.11293   0.32497   1.000
    O699    O    0.85399   0.04818   0.24041   1.000
    O700    O    0.90595   0.07801   0.21125   1.000
    O701    O    0.91119   0.42934   0.32598   1.000
    O702    O    0.06074   0.64310   0.60213   1.000
    O703    O    0.38117   0.51531   0.10374   1.000
    O704    O    0.37271   0.44817   0.07930   1.000
    O705    O    0.94428   0.35543   0.27531   1.000
    O706    O    0.92737   0.29439   0.29246   1.000
    O707    O    0.73071   0.47709   0.88528   1.000
    O708    O    0.64511   0.69006   0.83142   1.000
    O709    O    0.64130   0.66129   0.70736   1.000
    O710    O    0.71802   0.56775   0.90903   1.000
    O711    O    0.68144   0.67467   0.88628   1.000
loop_
    _geom_bond_atom_site_label_1
    _geom_bond_atom_site_label_2
    _geom_bond_distance
    _geom_bond_site_symmetry_2
    _ccdc_geom_bond_type
    C321   O324      1.05270      .   S
    C11    O324      1.05270      .   S
    C321   O325      0.71894  1_554   S
    C225   O325      0.71894      .   S
    C279   O326      0.61367  1_554   S
    C159   O326      0.61367      .   S
    C95    O327      0.56574  1_554   S
    C218   O327      0.56574      .   S
    C47    O328      0.54422      .   S
    C158   O328      0.54422      .   S
    C315   O329      0.61816      .   S
    C219   O329      0.61816      .   S
    C219   O330      0.68670  1_655   S
    C249   O330      0.68670      .   S
    C219   O331      0.77240  1_554   S
    C213   O331      0.77240  1_455   S
    C289   O332      0.64598      .   S
    C176   O332      0.64598      .   S
    C285   O333      0.62954      .   S
    C165   O333      0.62954      .   S
    C285   O334      1.11785  1_554   S
    C5     O334      1.11785      .   S
    C176   O335      0.76546      .   S
    C175   O335      0.76546      .   S
    C176   O336      0.63309  1_554   S
    C290   O336      0.63309      .   S
    C88    O337      0.54984      .   S
    C205   O337      0.54984      .   S
    C158   O338      0.69929      .   S
    C153   O338      0.69929  1_455   S
    C158   O339      0.69921      .   S
    C157   O339      0.69921      .   S
    C153   O340      0.70296      .   S
    C154   O340      0.70296      .   S
    C153   O341      0.75571      .   S
    C159   O341      0.75571  1_556   S
    C254   O342      0.63299      .   S
    C116   O342      0.63299  1_556   S
    C87    O343      0.54929      .   S
    C205   O343      0.54929      .   S
    C53    O344      0.55066      .   S
    C166   O344      0.55066      .   S
    C249   O345      0.50906      .   S
    C105   O345      0.50906      .   S
    C249   O346      0.72574      .   S
    C220   O346      0.72574      .   S
    C11    O347      1.19512  1_554   S
    C276   O347      1.19512      .   S
    C52    O348      0.54756      .   S
    C166   O348      0.54756      .   S
    C165   O349      0.74649      .   S
    C157   O349      0.74649      .   S
    C165   O350      0.66850      .   S
    C239   O350      0.66850      .   S
    C312   O351      0.62745      .   S
    C210   O351      0.62745      .   S
    C312   O352      1.19491      .   S
    C5     O352      1.19491  1_556   S
    C64    O353      0.54986      .   S
    C175   O353      0.54986      .   S
    C102   O354      0.51737      .   S
    C246   O354      0.51737      .   S
    C205   O355      0.72412      .   S
    C246   O355      0.72412      .   S
    C205   O356      0.76529      .   S
    C206   O356      0.76529      .   S
    C157   O357      0.69699      .   S
    C156   O357      0.69699      .   S
    C175   O358      0.54925      .   S
    C63    O358      0.54925      .   S
    C175   O359      0.72446      .   S
    C240   O359      0.72446      .   S
    C154   O360      0.54437      .   S
    C45    O360      0.54437      .   S
    C154   O361      0.70184      .   S
    C155   O361      0.70184      .   S
    C314   O362      1.14778      .   S
    C0     O362      1.14778      .   S
    C314   O363      0.64925      .   S
    C212   O363      0.64925      .   S
    C166   O364      0.72831      .   S
    C239   O364      0.72831      .   S
    C166   O365      0.77237      .   S
    C167   O365      0.77237      .   S
    C246   O366      0.67811      .   S
    C204   O366      0.67811      .   S
    C97    O367      0.54895  1_655   S
    C220   O367      0.54895      .   S
    C86    O368      0.54573      .   S
    C203   O368      0.54573      .   S
    C239   O369      0.51091      .   S
    C59    O369      0.51091      .   S
    C0     O370      1.15388      .   S
    C263   O370      1.15388      .   S
    C284   O371      0.64013      .   S
    C164   O371      0.64013      .   S
    C156   O372      0.70078  1_655   S
    C155   O372      0.70078      .   S
    C156   O373      0.54290      .   S
    C46    O373      0.54290      .   S
    C220   O374      0.55062      .   S
    C96    O374      0.55062      .   S
    C220   O375      0.76425      .   S
    C221   O375      0.76425  1_655   S
    C155   O376      0.75236      .   S
    C162   O376      0.75236      .   S
    C91    O377      0.54921      .   S
    C211   O377      0.54921      .   S
    C212   O378      0.62805      .   S
    C313   O378      0.62805      .   S
    C212   O379      0.75973      .   S
    C211   O379      0.75973      .   S
    C210   O380      0.74978      .   S
    C202   O380      0.74978      .   S
    C210   O381      0.67601      .   S
    C248   O381      0.67601      .   S
    C308   O382      0.63286      .   S
    C206   O382      0.63286  1_565   S
    C206   O383      0.64612      .   S
    C307   O383      0.64612      .   S
    C203   O384      0.70319      .   S
    C202   O384      0.70319      .   S
    C203   O385      0.70001      .   S
    C198   O385      0.70001      .   S
    C204   O386      0.75518      .   S
    C198   O386      0.75518      .   S
    C204   O387      0.62055      .   S
    C306   O387      0.62055      .   S
    C282   O388      0.63012      .   S
    C162   O388      0.63012      .   S
    C288   O389      0.62044      .   S
    C174   O389      0.62044      .   S
    C240   O390      0.51732      .   S
    C78    O390      0.51732      .   S
    C240   O391      0.67822      .   S
    C174   O391      0.67822      .   S
    C162   O392      0.67612      .   S
    C238   O392      0.67612      .   S
    C211   O393      0.72593      .   S
    C248   O393      0.72593      .   S
    C211   O394      0.54963      .   S
    C92    O394      0.54963      .   S
    C25    O395      0.54885      .   S
    C130   O395      0.54885      .   S
    C287   O396      0.62128      .   S
    C167   O396      0.62128      .   S
    C167   O397      0.64389      .   S
    C286   O397      0.64389      .   S
    C202   O398      0.70158      .   S
    C201   O398      0.70158      .   S
    C198   O399      0.69982      .   S
    C199   O399      0.69982      .   S
    C164   O400      0.63557      .   S
    C283   O400      0.63557      .   S
    C164   O401      0.76084      .   S
    C163   O401      0.76084      .   S
    C174   O402      0.75506      .   S
    C168   O402      0.75506      .   S
    C248   O403      0.50914      .   S
    C104   O403      0.50914      .   S
    C221   O404      0.63743      .   S
    C316   O404      0.63743      .   S
    C221   O405      0.63758      .   S
    C317   O405      0.63758      .   S
    C24    O406      0.55062      .   S
    C130   O406      0.55062      .   S
    C238   O407      0.51400      .   S
    C58    O407      0.51400      .   S
    C238   O408      0.72418      .   S
    C163   O408      0.72418      .   S
    C263   O409      0.63756      .   S
    C131   O409      0.63756      .   S
    C130   O410      0.76412      .   S
    C131   O410      0.76412      .   S
    C130   O411      0.72569      .   S
    C231   O411      0.72569      .   S
    C201   O412      0.54583      .   S
    C85    O412      0.54583      .   S
    C201   O413      0.70175      .   S
    C200   O413      0.70175      .   S
    C199   O414      0.54512      .   S
    C84    O414      0.54512      .   S
    C199   O415      0.69741      .   S
    C200   O415      0.69741      .   S
    C286   O416      1.11572      .   S
    C10    O416      1.11572      .   S
    C317   O417      1.15341      .   S
    C9     O417      1.15341      .   S
    C163   O418      0.54995      .   S
    C51    O418      0.54995      .   S
    C163   O419      0.55059      .   S
    C50    O419      0.55059      .   S
    C261   O420      0.61825      .   S
    C129   O420      0.61825      .   S
    C200   O421      0.74899      .   S
    C207   O421      0.74899      .   S
    C60    O422      0.54513      .   S
    C169   O422      0.54513      .   S
    C131   O423      0.63741      .   S
    C262   O423      0.63741      .   S
    C9     O424      1.14937      .   S
    C260   O424      1.14937      .   S
    C168   O425      0.69995      .   S
    C169   O425      0.69995      .   S
    C168   O426      0.69984      .   S
    C173   O426      0.69984      .   S
    C231   O427      0.68654      .   S
    C129   O427      0.68654      .   S
    C231   O428      0.50902      .   S
    C33    O428      0.50902      .   S
    C305   O429      0.62126      .   S
    C197   O429      0.62126      .   S
    C129   O430      0.75535  1_545   S
    C123   O430      0.75535      .   S
    C77    O431      0.55066      .   S
    C196   O431      0.55066      .   S
    C62    O432      0.54573      .   S
    C173   O432      0.54573      .   S
    C169   O433      0.69749      .   S
    C170   O433      0.69749      .   S
    C79    O434      0.50987      .   S
    C241   O434      0.50987      .   S
    C309   O435      0.62645      .   S
    C207   O435      0.62645      .   S
    C173   O436      0.70317      .   S
    C172   O436      0.70317      .   S
    C207   O437      0.70224      .   S
    C247   O437      0.70224  1_455   S
    C10    O438      1.18116      .   S
    C274   O438      1.18116      .   S
    C197   O439      0.77233      .   S
    C196   O439      0.77233      .   S
    C197   O440      0.64390      .   S
    C304   O440      0.64390      .   S
    C21    O441      0.54435      .   S
    C124   O441      0.54435      .   S
    C301   O442      0.63559      .   S
    C194   O442      0.63559      .   S
    C196   O443      0.54756      .   S
    C76    O443      0.54756      .   S
    C196   O444      0.72831      .   S
    C245   O444      0.72831      .   S
    C293   O445      0.63622      .   S
    C179   O445      0.63622      .   S
    C123   O446      0.70273      .   S
    C124   O446      0.70273      .   S
    C123   O447      0.69925      .   S
    C128   O447      0.69925      .   S
    C1     O448      1.11587      .   S
    C304   O448      1.11587      .   S
    C1     O449      1.18112      .   S
    C292   O449      1.18112      .   S
    C247   O450      0.50977      .   S
    C103   O450      0.50977      .   S
    C247   O451      0.69475      .   S
    C208   O451      0.69475      .   S
    C241   O452      0.72438      .   S
    C178   O452      0.72438      .   S
    C241   O453      0.67574      .   S
    C177   O453      0.67574      .   S
    C302   O454      0.64008      .   S
    C194   O454      0.64008      .   S
    C194   O455      0.76082      .   S
    C193   O455      0.76082      .   S
    C124   O456      0.70159      .   S
    C125   O456      0.70159      .   S
    C75    O457      0.54994      .   S
    C193   O457      0.54994      .   S
    C90    O458      0.54987      .   S
    C208   O458      0.54987      .   S
    C170   O459      0.74932      .   S
    C177   O459      0.74932      .   S
    C170   O460      0.70189      .   S
    C171   O460      0.70189      .   S
    C66    O461      0.54981      .   S
    C178   O461      0.54981      .   S
    C179   O462      0.63649      .   S
    C292   O462      0.63649      .   S
    C179   O463      0.76483      .   S
    C178   O463      0.76483      .   S
    C89    O464      0.54876      .   S
    C208   O464      0.54876      .   S
    C23    O465      0.56531  1_545   S
    C128   O465      0.56531      .   S
    C172   O466      0.70160      .   S
    C171   O466      0.70160      .   S
    C172   O467      0.74962      .   S
    C180   O467      0.74962      .   S
    C83    O468      0.51092      .   S
    C245   O468      0.51092      .   S
    C19    O469      0.54913      .   S
    C121   O469      0.54913      .   S
    C178   O470      0.54874      .   S
    C65    O470      0.54874      .   S
    C208   O471      0.76442      .   S
    C209   O471      0.76442      .   S
    C128   O472      0.69928      .   S
    C127   O472      0.69928      .   S
    C260   O473      0.64922      .   S
    C122   O473      0.64922      .   S
    C245   O474      0.66846      .   S
    C195   O474      0.66846      .   S
    C177   O475      0.62638      .   S
    C291   O475      0.62638      .   S
    C193   O476      0.72425      .   S
    C244   O476      0.72425      .   S
    C193   O477      0.55061      .   S
    C74    O477      0.55061      .   S
    C171   O478      0.54587      .   S
    C61    O478      0.54587      .   S
    C20    O479      0.54962      .   S
    C121   O479      0.54962      .   S
    C82    O480      0.51405      .   S
    C244   O480      0.51405      .   S
    C180   O481      0.62741      .   S
    C294   O481      0.62741      .   S
    C180   O482      0.67607      .   S
    C242   O482      0.67607      .   S
    C264   O483      0.63005      .   S
    C132   O483      0.63005      .   S
    C125   O484      0.75228      .   S
    C132   O484      0.75228      .   S
    C125   O485      0.70054      .   S
    C126   O485      0.70054      .   S
    C70    O486      0.54288      .   S
    C186   O486      0.54288      .   S
    C121   O487      0.75987      .   S
    C122   O487      0.75987  1_655   S
    C121   O488      0.72578      .   S
    C230   O488      0.72578      .   S
    C294   O489      1.19642      .   S
    C2     O489      1.19642  1_545   S
    C295   O490      0.62791      .   S
    C182   O490      0.62791      .   S
    C275   O491      0.63626      .   S
    C149   O491      0.63626      .   S
    C244   O492      0.67611      .   S
    C192   O492      0.67611      .   S
    C274   O493      0.63651      .   S
    C149   O493      0.63651      .   S
    C80    O494      0.50916      .   S
    C242   O494      0.50916      .   S
    C122   O495      0.62804      .   S
    C259   O495      0.62804      .   S
    C127   O496      0.69695      .   S
    C126   O496      0.69695      .   S
    C127   O497      0.74660      .   S
    C135   O497      0.74660      .   S
    C195   O498      0.62949      .   S
    C303   O498      0.62949      .   S
    C195   O499      0.74642      .   S
    C187   O499      0.74642      .   S
    C132   O500      0.67604      .   S
    C232   O500      0.67604      .   S
    C242   O501      0.72584      .   S
    C181   O501      0.72584      .   S
    C303   O502      1.11736  1_545   S
    C8     O502      1.11736      .   S
    C2     O503      1.05405      .   S
    C267   O503      1.05405      .   S
    C126   O504      0.54283      .   S
    C22    O504      0.54283      .   S
    C209   O505      0.63641      .   S
    C310   O505      0.63641      .   S
    C209   O506      0.63638      .   S
    C311   O506      0.63638      .   S
    C149   O507      0.76483      .   S
    C148   O507      0.76483      .   S
    C255   O508      0.62646      .   S
    C117   O508      0.62646      .   S
    C186   O509      0.69698      .   S
    C187   O509      0.69698      .   S
    C186   O510      0.70055      .   S
    C185   O510      0.70055      .   S
    C8     O511      1.19647  1_565   S
    C258   O511      1.19647      .   S
    C267   O512      0.71803  1_545   S
    C135   O512      0.71803      .   S
    C13    O513      0.54581      .   S
    C111   O513      0.54581      .   S
    C230   O514      0.50912      .   S
    C32    O514      0.50912      .   S
    C230   O515      0.67603      .   S
    C120   O515      0.67603      .   S
    C192   O516      0.75235      .   S
    C185   O516      0.75235      .   S
    C192   O517      0.63008      .   S
    C300   O517      0.63008      .   S
    C187   O518      0.69922      .   S
    C188   O518      0.69922      .   S
    C135   O519      0.66859      .   S
    C233   O519      0.66859      .   S
    C17    O520      0.54875      .   S
    C118   O520      0.54875      .   S
    C182   O521      0.76025  1_455   S
    C181   O521      0.76025      .   S
    C182   O522      0.64929      .   S
    C296   O522      0.64929      .   S
    C26    O523      0.55067      .   S
    C133   O523      0.55067      .   S
    C310   O524      1.18369      .   S
    C4     O524      1.18369      .   S
    C232   O525      0.51405      .   S
    C34    O525      0.51405      .   S
    C232   O526      0.72414      .   S
    C133   O526      0.72414      .   S
    C258   O527      0.62753      .   S
    C120   O527      0.62753      .   S
    C181   O528      0.54951      .   S
    C68    O528      0.54951      .   S
    C181   O529      0.54910      .   S
    C67    O529      0.54910      .   S
    C185   O530      0.70183      .   S
    C184   O530      0.70183      .   S
    C120   O531      0.74971      .   S
    C112   O531      0.74971      .   S
    C111   O532      0.70157      .   S
    C112   O532      0.70157      .   S
    C111   O533      0.70166      .   S
    C110   O533      0.70166      .   S
    C133   O534      0.54996      .   S
    C27    O534      0.54996      .   S
    C133   O535      0.76058      .   S
    C134   O535      0.76058      .   S
    C117   O536      0.74893      .   S
    C110   O536      0.74893      .   S
    C117   O537      0.67557      .   S
    C229   O537      0.67557      .   S
    C233   O538      0.51091      .   S
    C35    O538      0.51091      .   S
    C233   O539      0.72849      .   S
    C136   O539      0.72849      .   S
    C296   O540      1.14776      .   S
    C3     O540      1.14776      .   S
    C148   O541      0.54875      .   S
    C41    O541      0.54875      .   S
    C148   O542      0.54982      .   S
    C42    O542      0.54982      .   S
    C148   O543      0.72437      .   S
    C235   O543      0.72437  1_455   S
    C118   O544      0.54986      .   S
    C18    O544      0.54986      .   S
    C118   O545      0.76437      .   S
    C119   O545      0.76437      .   S
    C118   O546      0.72416      .   S
    C229   O546      0.72416      .   S
    C188   O547      0.54420      .   S
    C71    O547      0.54420      .   S
    C188   O548      0.69929      .   S
    C183   O548      0.69929      .   S
    C256   O549      0.63639      .   S
    C119   O549      0.63639      .   S
    C256   O550      1.18361      .   S
    C7     O550      1.18361      .   S
    C112   O551      0.70319      .   S
    C113   O551      0.70319      .   S
    C119   O552      0.63638      .   S
    C257   O552      0.63638      .   S
    C110   O553      0.69740      .   S
    C109   O553      0.69740      .   S
    C184   O554      0.70277      .   S
    C183   O554      0.70277      .   S
    C184   O555      0.54435      .   S
    C69    O555      0.54435      .   S
    C28    O556      0.54761      .   S
    C136   O556      0.54761      .   S
    C134   O557      0.64008      .   S
    C266   O557      0.64008      .   S
    C134   O558      0.63559      .   S
    C265   O558      0.63559      .   S
    C229   O559      0.50996      .   S
    C31    O559      0.50996      .   S
    C55    O560      0.50996      .   S
    C235   O560      0.50996      .   S
    C268   O561      1.11664      .   S
    C7     O561      1.11664      .   S
    C268   O562      0.64413      .   S
    C137   O562      0.64413      .   S
    C235   O563      0.67587      .   S
    C147   O563      0.67587      .   S
    C183   O564      0.75555      .   S
    C189   O564      0.75555  1_565   S
    C298   O565      0.63740      .   S
    C191   O565      0.63740      .   S
    C136   O566      0.77295      .   S
    C137   O566      0.77295      .   S
    C136   O567      0.55065      .   S
    C29    O567      0.55065      .   S
    C137   O568      0.62136      .   S
    C269   O568      0.62136      .   S
    C4     O569      1.11671      .   S
    C322   O569      1.11671      .   S
    C147   O570      0.62644      .   S
    C273   O570      0.62644      .   S
    C147   O571      0.74928      .   S
    C140   O571      0.74928      .   S
    C113   O572      0.54574      .   S
    C14    O572      0.54574      .   S
    C113   O573      0.70005      .   S
    C108   O573      0.70005      .   S
    C81    O574      0.50900      .   S
    C243   O574      0.50900      .   S
    C109   O575      0.69982      .   S
    C108   O575      0.69982      .   S
    C109   O576      0.54511      .   S
    C12    O576      0.54511      .   S
    C98    O577      0.55067      .   S
    C223   O577      0.55067      .   S
    C189   O578      0.68655      .   S
    C243   O578      0.68655      .   S
    C189   O579      0.61378      .   S
    C297   O579      0.61378  1_545   S
    C99    O580      0.54995      .   S
    C223   O580      0.54995      .   S
    C243   O581      0.72563      .   S
    C190   O581      0.72563      .   S
    C108   O582      0.75521      .   S
    C114   O582      0.75521      .   S
    C3     O583      1.15655      .   S
    C281   O583      1.15655      .   S
    C191   O584      0.63747      .   S
    C299   O584      0.63747      .   S
    C191   O585      0.76412      .   S
    C190   O585      0.76412      .   S
    C140   O586      0.69749      .   S
    C139   O586      0.69749      .   S
    C140   O587      0.70190      .   S
    C141   O587      0.70190      .   S
    C36    O588      0.54512      .   S
    C139   O588      0.54512      .   S
    C56    O589      0.50915      .   S
    C236   O589      0.50915      .   S
    C37    O590      0.54588      .   S
    C141   O590      0.54588      .   S
    C281   O591      0.63746      .   S
    C161   O591      0.63746      .   S
    C223   O592      0.72412      .   S
    C250   O592      0.72412      .   S
    C223   O593      0.76061      .   S
    C224   O593      0.76061      .   S
    C322   O594      0.64416      .   S
    C227   O594      0.64416      .   S
    C139   O595      0.69995      .   S
    C138   O595      0.69995      .   S
    C141   O596      0.70156      .   S
    C142   O596      0.70156      .   S
    C299   O597      1.15676      .   S
    C6     O597      1.15676      .   S
    C190   O598      0.55062      .   S
    C72    O598      0.55062      .   S
    C190   O599      0.54885      .   S
    C73    O599      0.54885      .   S
    C44    O600      0.54950      .   S
    C151   O600      0.54950      .   S
    C319   O601      0.63559      .   S
    C224   O601      0.63559      .   S
    C280   O602      0.63740      .   S
    C161   O602      0.63740      .   S
    C106   O603      0.51405      .   S
    C250   O603      0.51405      .   S
    C250   O604      0.67601      .   S
    C222   O604      0.67601      .   S
    C271   O605      0.64595      .   S
    C146   O605      0.64595      .   S
    C161   O606      0.76425  1_455   S
    C160   O606      0.76425      .   S
    C236   O607      0.72587      .   S
    C151   O607      0.72587      .   S
    C236   O608      0.67603      .   S
    C150   O608      0.67603      .   S
    C270   O609      0.62044      .   S
    C144   O609      0.62044      .   S
    C114   O610      0.67808      .   S
    C228   O610      0.67808      .   S
    C114   O611      0.62054      .   S
    C252   O611      0.62054      .   S
    C224   O612      0.64005      .   S
    C320   O612      0.64005      .   S
    C30    O613      0.51738      .   S
    C228   O613      0.51738      .   S
    C138   O614      0.75500      .   S
    C144   O614      0.75500      .   S
    C138   O615      0.69982      .   S
    C143   O615      0.69982      .   S
    C227   O616      0.62135      .   S
    C323   O616      0.62135      .   S
    C227   O617      0.77290      .   S
    C226   O617      0.77290      .   S
    C142   O618      0.70317      .   S
    C143   O618      0.70317      .   S
    C142   O619      0.74953      .   S
    C150   O619      0.74953      .   S
    C151   O620      0.76011      .   S
    C152   O620      0.76011      .   S
    C151   O621      0.54909      .   S
    C43    O621      0.54909      .   S
    C222   O622      0.63007      .   S
    C318   O622      0.63007      .   S
    C222   O623      0.75219      .   S
    C215   O623      0.75219      .   S
    C228   O624      0.72413      .   S
    C115   O624      0.72413      .   S
    C144   O625      0.67823      .   S
    C234   O625      0.67823      .   S
    C107   O626      0.51090      .   S
    C251   O626      0.51090      .   S
    C143   O627      0.54573      .   S
    C38    O627      0.54573      .   S
    C94    O628      0.54283      .   S
    C216   O628      0.54283      .   S
    C48    O629      0.55061      .   S
    C160   O629      0.55061      .   S
    C146   O630      0.63299  1_545   S
    C272   O630      0.63299      .   S
    C146   O631      0.76544      .   S
    C145   O631      0.76544      .   S
    C150   O632      0.62739      .   S
    C276   O632      0.62739      .   S
    C277   O633      0.62786      .   S
    C152   O633      0.62786      .   S
    C152   O634      0.64924      .   S
    C278   O634      0.64924      .   S
    C215   O635      0.70068      .   S
    C216   O635      0.70068  1_455   S
    C215   O636      0.70158      .   S
    C214   O636      0.70158      .   S
    C160   O637      0.54896      .   S
    C49    O637      0.54896  1_455   S
    C160   O638      0.72562      .   S
    C237   O638      0.72562      .   S
    C216   O639      0.69690      .   S
    C217   O639      0.69690      .   S
    C251   O640      0.72851      .   S
    C226   O640      0.72851      .   S
    C251   O641      0.66855      .   S
    C225   O641      0.66855      .   S
    C6     O642      1.14733      .   S
    C278   O642      1.14733      .   S
    C226   O643      0.54762      .   S
    C100   O643      0.54762      .   S
    C226   O644      0.55065      .   S
    C101   O644      0.55065      .   S
    C234   O645      0.72440      .   S
    C145   O645      0.72440      .   S
    C234   O646      0.51730      .   S
    C54    O646      0.51730      .   S
    C15    O647      0.54929      .   S
    C115   O647      0.54929      .   S
    C93    O648      0.54435      .   S
    C214   O648      0.54435      .   S
    C214   O649      0.77279      .   S
    C213   O649      0.77279  1_455   S
    C115   O650      0.54985      .   S
    C16    O650      0.54985      .   S
    C115   O651      0.76529      .   S
    C116   O651      0.76529      .   S
    C217   O652      0.74651      .   S
    C225   O652      0.74651      .   S
    C217   O653      0.69930      .   S
    C218   O653      0.69930      .   S
    C145   O654      0.54926      .   S
    C39    O654      0.54926      .   S
    C145   O655      0.54986      .   S
    C40    O655      0.54986      .   S
    C57    O656      0.50900      .   S
    C237   O656      0.50900      .   S
    C237   O657      0.68672      .   S
    C159   O657      0.68672  1_455   S
    C213   O658      0.62837      .   S
    C218   O658      0.62837      .   S
    C116   O659      0.64607      .   S
    C253   O659      0.64607      .   S
    C253   O660      1.18996  1_556   S
    C0     O660      1.18996      .   S
    C254   O661      1.18488      .   S
    C0     O661      1.18488      .   S
    C255   O662      1.19780      .   S
    C1     O662      1.19780      .   S
    C257   O663      1.23404      .   S
    C7     O663      1.23404      .   S
    C259   O664      1.23722      .   S
    C2     O664      1.23722      .   S
    C260   O665      1.22460      .   S
    C2     O665      1.22460      .   S
    C262   O666      1.26051      .   S
    C1     O666      1.26051      .   S
    C263   O667      1.30973      .   S
    C1     O667      1.30973      .   S
    C264   O668      1.21884      .   S
    C8     O668      1.21884      .   S
    C265   O669      1.19617      .   S
    C3     O669      1.19617      .   S
    C265   O670      1.23670      .   S
    C4     O670      1.23670      .   S
    C266   O671      1.42504      .   S
    C3     O671      1.42504      .   S
    C266   O672      1.20367      .   S
    C8     O672      1.20367      .   S
    C271   O673      1.19236  1_545   S
    C3     O673      1.19236      .   S
    C272   O674      1.18243      .   S
    C3     O674      1.18243      .   S
    C273   O675      1.19676      .   S
    C4     O675      1.19676      .   S
    C275   O676      1.23595      .   S
    C10    O676      1.23595      .   S
    C277   O677      1.23691      .   S
    C5     O677      1.23691      .   S
    C278   O678      1.22545      .   S
    C5     O678      1.22545      .   S
    C280   O679      1.26671      .   S
    C4     O679      1.26671      .   S
    C281   O680      1.30981      .   S
    C4     O680      1.30981      .   S
    C282   O681      1.22073      .   S
    C11    O681      1.22073      .   S
    C283   O682      1.19765      .   S
    C0     O682      1.19765      .   S
    C283   O683      1.23529      .   S
    C1     O683      1.23529      .   S
    C284   O684      1.42526      .   S
    C0     O684      1.42526      .   S
    C284   O685      1.20680      .   S
    C11    O685      1.20680      .   S
    C289   O686      1.19242  1_554   S
    C6     O686      1.19242      .   S
    C290   O687      1.18222      .   S
    C6     O687      1.18222      .   S
    C291   O688      1.19671      .   S
    C7     O688      1.19671      .   S
    C293   O689      1.23704      .   S
    C1     O689      1.23704      .   S
    C295   O690      1.23647      .   S
    C8     O690      1.23647      .   S
    C296   O691      1.22527      .   S
    C8     O691      1.22527      .   S
    C298   O692      1.26676      .   S
    C7     O692      1.26676      .   S
    C299   O693      1.30912      .   S
    C7     O693      1.30912      .   S
    C300   O694      1.21963      .   S
    C2     O694      1.21963      .   S
    C301   O695      1.19814      .   S
    C9     O695      1.19814      .   S
    C301   O696      1.23547      .   S
    C10    O696      1.23547      .   S
    C302   O697      1.20343      .   S
    C2     O697      1.20343      .   S
    C302   O698      1.42615      .   S
    C9     O698      1.42615      .   S
    C307   O699      1.18985  1_565   S
    C9     O699      1.18985      .   S
    C308   O700      1.18569      .   S
    C9     O700      1.18569      .   S
    C309   O701      1.19791      .   S
    C10    O701      1.19791      .   S
    C311   O702      1.23405      .   S
    C4     O702      1.23405      .   S
    C313   O703      1.23306      .   S
    C11    O703      1.23306      .   S
    C314   O704      1.22554      .   S
    C11    O704      1.22554      .   S
    C316   O705      1.25948      .   S
    C10    O705      1.25948      .   S
    C317   O706      1.31213      .   S
    C10    O706      1.31213      .   S
    C318   O707      1.21781      .   S
    C5     O707      1.21781      .   S
    C319   O708      1.19645      .   S
    C6     O708      1.19645      .   S
    C319   O709      1.23663      .   S
    C7     O709      1.23663      .   S
    C320   O710      1.20368      .   S
    C5     O710      1.20368      .   S
    C320   O711      1.42561      .   S
    C6     O711      1.42561      .   S
