# CIF file generated by openbabel 2.4.90, see http://openbabel.sf.net
data_I
_chemical_name_common ''
_cell_length_a 23.263
_cell_length_b 15.816
_cell_length_c 15.993
_cell_angle_alpha 90.014
_cell_angle_beta 89.916
_cell_angle_gamma 90.006
_space_group_name_H-M_alt 'P 1'
_space_group_name_Hall 'P 1'
loop_
    _symmetry_equiv_pos_as_xyz
    x,y,z
loop_
    _atom_site_label
    _atom_site_type_symbol
    _atom_site_fract_x
    _atom_site_fract_y
    _atom_site_fract_z
    _atom_site_occupancy
    N0      N    0.82106   0.50041   0.67141   1.000
    N1      N    0.32101   0.49921   0.67271   1.000
    N2      N    0.57155   0.49929   0.32845   1.000
    N3      N    0.07149   0.50071   0.32853   1.000
    N4      N    0.06663   0.99453   0.16812   1.000
    N5      N    0.56749   0.00850   0.16831   1.000
    N6      N    0.31706   0.00300   0.83205   1.000
    N7      N    0.81678   0.99570   0.83140   1.000
    Zr8     Zr   0.57106   0.00008   0.66859   1.000
    O9      O    0.56969   0.00221   0.50523   1.000
    O10     O    0.57008   0.00330   0.83181   1.000
    Zr11    Zr   0.07079   0.99975   0.66837   1.000
    O12     O    0.06937   0.99842   0.50505   1.000
    O13     O    0.06946   0.99778   0.83158   1.000
    Zr14    Zr   0.82129   0.99992   0.33139   1.000
    O15     O    0.82000   0.99813   0.16806   1.000
    O16     O    0.81967   0.99910   0.49466   1.000
    Zr17    Zr   0.32129   0.00000   0.33209   1.000
    O18     O    0.31976   0.00058   0.49538   1.000
    O19     O    0.32008   0.00125   0.16878   1.000
    O20     O    0.50090   0.86311   0.66966   1.000
    O21     O    0.50080   0.13640   0.66942   1.000
    O22     O    0.64129   0.86360   0.67002   1.000
    O23     O    0.64135   0.13670   0.66959   1.000
    O24     O    0.14122   0.13602   0.67033   1.000
    O25     O    0.14097   0.86290   0.66967   1.000
    O26     O    0.25116   0.13696   0.33146   1.000
    O27     O    0.25121   0.86361   0.33143   1.000
    O28     O    0.39166   0.86325   0.33022   1.000
    O29     O    0.39153   0.13640   0.33110   1.000
    O30     O    0.89152   0.86356   0.33066   1.000
    O31     O    0.89164   0.13670   0.32956   1.000
    O32     O    0.00057   0.86343   0.66901   1.000
    O33     O    0.00079   0.13672   0.66888   1.000
    O34     O    0.75117   0.86300   0.33100   1.000
    O35     O    0.75124   0.13636   0.33065   1.000
loop_
    _geom_bond_atom_site_label_1
    _geom_bond_atom_site_label_2
    _geom_bond_distance
    _geom_bond_site_symmetry_2
    _ccdc_geom_bond_type
    Zr8    O9        2.61302      .   S
    N5     O9        5.38967      .   S
    Zr8    O10       2.61095      .   S
    N5     O10       5.38249  1_554   S
    Zr11   O12       2.61244      .   S
    N4     O12       5.38924      .   S
    Zr11   O13       2.61046      .   S
    N4     O13       5.38290  1_554   S
    Zr14   O15       2.61266      .   S
    N7     O15       5.38496  1_556   S
    Zr14   O16       2.61137      .   S
    N7     O16       5.38599      .   S
    Zr17   O18       2.61169      .   S
    N6     O18       5.38474      .   S
    Zr17   O19       2.61210      .   S
    N6     O19       5.38598  1_556   S
    Zr8    O20       2.71211  1_545   S
    N1     O20       7.11588      .   S
    Zr8    O21       2.70576      .   S
    N1     O21       7.10109      .   S
    Zr8    O22       2.70737  1_545   S
    N0     O22       7.10571      .   S
    Zr8    O23       2.70979      .   S
    N0     O23       7.11080      .   S
    N1     O24       7.10530      .   S
    Zr11   O24       2.70726  1_565   S
    N1     O25       7.11595      .   S
    Zr11   O25       2.71134      .   S
    Zr17   O26       2.71186      .   S
    N3     O26       7.11167      .   S
    Zr17   O27       2.70385  1_545   S
    N3     O27       7.10077      .   S
    Zr17   O28       2.71285  1_545   S
    N2     O28       7.11715      .   S
    Zr17   O29       2.70615      .   S
    N2     O29       7.10455      .   S
    N3     O30       7.10409  1_455   S
    Zr14   O30       2.70585      .   S
    N3     O31       7.11647  1_455   S
    Zr14   O31       2.71261  1_565   S
    N0     O32       7.09927  1_655   S
    Zr11   O32       2.70494      .   S
    N0     O33       7.11154  1_655   S
    Zr11   O33       2.71030  1_565   S
    Zr14   O34       2.71094      .   S
    N2     O34       7.10977      .   S
    Zr14   O35       2.70413  1_565   S
    N2     O35       7.10141      .   S
