# CIF file generated by openbabel 2.4.90, see http://openbabel.sf.net
data_I
_chemical_name_common ''
_cell_length_a 23.263
_cell_length_b 15.816
_cell_length_c 15.993
_cell_angle_alpha 90.014
_cell_angle_beta 89.916
_cell_angle_gamma 90.006
_space_group_name_H-M_alt 'P 1'
_space_group_name_Hall 'P 1'
loop_
    _symmetry_equiv_pos_as_xyz
    x,y,z
loop_
    _atom_site_label
    _atom_site_type_symbol
    _atom_site_fract_x
    _atom_site_fract_y
    _atom_site_fract_z
    _atom_site_occupancy
    N0      N    0.82106   0.50041   0.67141   1.000
    N1      N    0.32101   0.49921   0.67271   1.000
    N2      N    0.57155   0.49929   0.32845   1.000
    N3      N    0.07149   0.50071   0.32853   1.000
    N4      N    0.06663   0.99453   0.16812   1.000
    N5      N    0.56749   0.00850   0.16831   1.000
    N6      N    0.31706   0.00300   0.83205   1.000
    N7      N    0.81678   0.99570   0.83140   1.000
    Zr8     Zr   0.57106   0.00008   0.66859   1.000
    O9      O    0.49981   0.86328   0.64975   1.000
    O10     O    0.64019   0.86323   0.65010   1.000
    O11     O    0.64012   0.13714   0.64971   1.000
    O12     O    0.49955   0.13596   0.64955   1.000
    O13     O    0.56969   0.00221   0.50523   1.000
    O14     O    0.64258   0.13626   0.68947   1.000
    O15     O    0.64239   0.86396   0.68993   1.000
    O16     O    0.50205   0.13684   0.68929   1.000
    O17     O    0.50199   0.86294   0.68956   1.000
    O18     O    0.57008   0.00330   0.83181   1.000
    Zr19    Zr   0.07079   0.99975   0.66837   1.000
    O20     O    0.99978   0.13651   0.64898   1.000
    O21     O    0.99939   0.86385   0.64915   1.000
    O22     O    0.13977   0.86227   0.64982   1.000
    O23     O    0.14029   0.13620   0.65041   1.000
    O24     O    0.06937   0.99842   0.50505   1.000
    O25     O    0.00180   0.13693   0.68879   1.000
    O26     O    0.00175   0.86301   0.68888   1.000
    O27     O    0.14218   0.86353   0.68953   1.000
    O28     O    0.14215   0.13584   0.69026   1.000
    O29     O    0.06946   0.99778   0.83158   1.000
    Zr30    Zr   0.82129   0.99992   0.33139   1.000
    O31     O    0.89261   0.86395   0.31076   1.000
    O32     O    0.82000   0.99813   0.16806   1.000
    O33     O    0.89287   0.13629   0.30968   1.000
    O34     O    0.75229   0.86276   0.31110   1.000
    O35     O    0.75253   0.13680   0.31080   1.000
    O36     O    0.89043   0.86318   0.35057   1.000
    O37     O    0.81967   0.99910   0.49466   1.000
    O38     O    0.89040   0.13711   0.34945   1.000
    O39     O    0.74995   0.13592   0.35051   1.000
    O40     O    0.75006   0.86324   0.35089   1.000
    Zr41    Zr   0.32129   0.00000   0.33209   1.000
    O42     O    0.24987   0.86409   0.35128   1.000
    O43     O    0.25004   0.13675   0.35136   1.000
    O44     O    0.31976   0.00058   0.49538   1.000
    O45     O    0.39044   0.13681   0.35100   1.000
    O46     O    0.39042   0.86286   0.35011   1.000
    O47     O    0.25228   0.13716   0.31157   1.000
    O48     O    0.32008   0.00125   0.16878   1.000
    O49     O    0.25255   0.86312   0.31159   1.000
    O50     O    0.39262   0.13599   0.31119   1.000
    O51     O    0.39290   0.86364   0.31034   1.000
loop_
    _geom_bond_atom_site_label_1
    _geom_bond_atom_site_label_2
    _geom_bond_distance
    _geom_bond_site_symmetry_2
    _ccdc_geom_bond_type
    Zr8    O9        2.74215  1_545   S
    N1     O9        7.11223      .   S
    Zr8    O10       2.71236  1_545   S
    N0     O10       7.12459      .   S
    Zr8    O11       2.71479      .   S
    N0     O11       7.13064      .   S
    Zr8    O12       2.73520      .   S
    N1     O12       7.09881      .   S
    Zr8    O13       2.61302      .   S
    N5     O13       5.38967      .   S
    Zr8    O14       2.74222      .   S
    N0     O14       7.10529      .   S
    Zr8    O15       2.73989  1_545   S
    N0     O15       7.10117      .   S
    Zr8    O16       2.71381      .   S
    N1     O16       7.11771      .   S
    Zr8    O17       2.71953  1_545   S
    N1     O17       7.13386      .   S
    Zr8    O18       2.61095      .   S
    N5     O18       5.38249  1_554   S
    Zr19   O20       2.73986  1_465   S
    N0     O20       7.10899      .   S
    Zr19   O21       2.73388  1_455   S
    N0     O21       7.09717      .   S
    Zr19   O22       2.71844      .   S
    N1     O22       7.13397      .   S
    Zr19   O23       2.71137  1_565   S
    N1     O23       7.12481      .   S
    Zr19   O24       2.61244      .   S
    N4     O24       5.38924      .   S
    Zr19   O25       2.71818  1_565   S
    N0     O25       7.12840  1_655   S
    Zr19   O26       2.71345      .   S
    N0     O26       7.11567  1_655   S
    Zr19   O27       2.74159      .   S
    N1     O27       7.11220      .   S
    Zr19   O28       2.74065  1_565   S
    N1     O28       7.10012      .   S
    Zr19   O29       2.61046      .   S
    N4     O29       5.38290  1_554   S
    Zr30   O31       2.73600      .   S
    N3     O31       7.10007  1_455   S
    Zr30   O32       2.61266      .   S
    N7     O32       5.38496  1_556   S
    Zr30   O33       2.74655  1_565   S
    N3     O33       7.11146  1_455   S
    Zr30   O34       2.71809      .   S
    N2     O34       7.12708      .   S
    Zr30   O35       2.71212  1_565   S
    N2     O35       7.11869      .   S
    Zr30   O36       2.71321      .   S
    N3     O36       7.12244  1_455   S
    Zr30   O37       2.61137      .   S
    N7     O37       5.38599      .   S
    Zr30   O38       2.71603  1_565   S
    N3     O38       7.13577  1_455   S
    Zr30   O39       2.73359  1_565   S
    N2     O39       7.09843      .   S
    Zr30   O40       2.74119      .   S
    N2     O40       7.10678      .   S
    Zr41   O42       2.73370  1_545   S
    N3     O42       7.09808      .   S
    Zr41   O43       2.74195      .   S
    N3     O43       7.10866      .   S
    Zr41   O44       2.61169      .   S
    N6     O44       5.38474      .   S
    Zr41   O45       2.71320      .   S
    N2     O45       7.12309      .   S
    Zr41   O46       2.71591  1_545   S
    N2     O46       7.13726      .   S
    Zr41   O47       2.71916      .   S
    N3     O47       7.12898      .   S
    Zr41   O48       2.61210      .   S
    N6     O48       5.38598  1_556   S
    Zr41   O49       2.71145  1_545   S
    N3     O49       7.11777      .   S
    Zr41   O50       2.73661      .   S
    N2     O50       7.10034      .   S
    Zr41   O51       2.74716  1_545   S
    N2     O51       7.11133      .   S
