# CIF file generated by openbabel 2.4.90, see http://openbabel.sf.net
data_I
_chemical_name_common ''
_cell_length_a 11.628
_cell_length_b 13.002
_cell_length_c 13.003
_cell_angle_alpha 95.91
_cell_angle_beta 106.121
_cell_angle_gamma 106.096
_space_group_name_H-M_alt 'P 1'
_space_group_name_Hall 'P 1'
loop_
    _symmetry_equiv_pos_as_xyz
    x,y,z
loop_
    _atom_site_label
    _atom_site_type_symbol
    _atom_site_fract_x
    _atom_site_fract_y
    _atom_site_fract_z
    _atom_site_occupancy
    N0      N    0.74989   0.71802   0.78260   1.000
    N1      N    0.74997   0.21711   0.28198   1.000
    N2      N    0.99973   0.99960   0.50000   1.000
    N3      N    0.24989   0.78280   0.71802   1.000
    N4      N    0.49998   0.49998   0.99953   1.000
    N5      N    0.25007   0.28196   0.21737   1.000
    Zr6     Zr   0.25000   0.78164   0.21831   1.000
    O7      O    0.23944   0.85356   0.30664   1.000
    O8      O    0.26047   0.69333   0.14620   1.000
    Zr9     Zr   0.74996   0.21836   0.78168   1.000
    O10     O    0.73948   0.30666   0.85357   1.000
    O11     O    0.76039   0.14623   0.69336   1.000
    O12     O    0.25173   0.63880   0.21774   1.000
    O13     O    0.24834   0.92472   0.21835   1.000
    O14     O    0.25165   0.78165   0.07524   1.000
    O15     O    0.24825   0.78227   0.36116   1.000
    O16     O    0.75169   0.21770   0.63884   1.000
    O17     O    0.74828   0.21834   0.92475   1.000
    O18     O    0.75161   0.07527   0.78165   1.000
    O19     O    0.74823   0.36119   0.78222   1.000
loop_
    _geom_bond_atom_site_label_1
    _geom_bond_atom_site_label_2
    _geom_bond_distance
    _geom_bond_site_symmetry_2
    _ccdc_geom_bond_type
    Zr6    O7        1.45920      .   S
    N2     O7        4.85182  1_655   S
    Zr6    O8        1.46014      .   S
    N4     O8        4.85353  1_556   S
    Zr9    O10       1.45827      .   S
    N4     O10       4.84881      .   S
    Zr9    O11       1.46008      .   S
    N2     O11       4.85197  1_565   S
    Zr6    O12       1.86217      .   S
    N5     O12       4.63388      .   S
    Zr6    O13       1.86570      .   S
    N5     O13       4.64060  1_545   S
    Zr6    O14       1.86577      .   S
    N3     O14       4.64084  1_556   S
    Zr6    O15       1.86245      .   S
    N3     O15       4.63431      .   S
    Zr9    O16       1.86225      .   S
    N1     O16       4.63396      .   S
    Zr9    O17       1.86591      .   S
    N1     O17       4.64124  1_554   S
    Zr9    O18       1.86576      .   S
    N0     O18       4.64073  1_565   S
    Zr9    O19       1.86215      .   S
    N0     O19       4.63370      .   S
