# CIF file generated by openbabel 2.4.90, see http://openbabel.sf.net
data_I
_chemical_name_common ''
_cell_length_a 11.628
_cell_length_b 13.002
_cell_length_c 13.003
_cell_angle_alpha 95.91
_cell_angle_beta 106.121
_cell_angle_gamma 106.096
_space_group_name_H-M_alt 'P 1'
_space_group_name_Hall 'P 1'
loop_
    _symmetry_equiv_pos_as_xyz
    x,y,z
loop_
    _atom_site_label
    _atom_site_type_symbol
    _atom_site_fract_x
    _atom_site_fract_y
    _atom_site_fract_z
    _atom_site_occupancy
    N0      N    0.74989   0.71802   0.78260   1.000
    N1      N    0.74997   0.21711   0.28198   1.000
    N2      N    0.99973   0.99960   0.50000   1.000
    N3      N    0.24989   0.78280   0.71802   1.000
    N4      N    0.49998   0.49998   0.99953   1.000
    N5      N    0.25007   0.28196   0.21737   1.000
    Zr6     Zr   0.25000   0.78164   0.21831   1.000
    O7      O    0.23944   0.85356   0.30664   1.000
    O8      O    0.27851   0.79131   0.08481   1.000
    O9      O    0.27513   0.79176   0.37067   1.000
    O10     O    0.27861   0.64831   0.22721   1.000
    O11     O    0.27520   0.93428   0.22801   1.000
    O12     O    0.22149   0.91517   0.20868   1.000
    O13     O    0.22136   0.77277   0.35165   1.000
    O14     O    0.22480   0.77198   0.06568   1.000
    O15     O    0.22484   0.62929   0.20827   1.000
    O16     O    0.26047   0.69333   0.14620   1.000
    Zr17    Zr   0.74996   0.21836   0.78168   1.000
    O18     O    0.77857   0.22719   0.64835   1.000
    O19     O    0.77514   0.22800   0.93432   1.000
    O20     O    0.77847   0.08483   0.79132   1.000
    O21     O    0.77512   0.37070   0.79172   1.000
    O22     O    0.73948   0.30666   0.85357   1.000
    O23     O    0.72480   0.20820   0.62932   1.000
    O24     O    0.72476   0.06571   0.77199   1.000
    O25     O    0.76039   0.14623   0.69336   1.000
    O26     O    0.72135   0.35168   0.77272   1.000
    O27     O    0.72142   0.20867   0.91519   1.000
loop_
    _geom_bond_atom_site_label_1
    _geom_bond_atom_site_label_2
    _geom_bond_distance
    _geom_bond_site_symmetry_2
    _ccdc_geom_bond_type
    Zr6    O7        1.45920      .   S
    N2     O7        4.85182  1_655   S
    Zr6    O8        1.86566      .   S
    N3     O8        4.67530  1_556   S
    Zr6    O9        1.90560      .   S
    N3     O9        4.61789      .   S
    Zr6    O10       1.86256      .   S
    N5     O10       4.66799      .   S
    Zr6    O11       1.90941      .   S
    N5     O11       4.62368  1_545   S
    Zr6    O12       1.86556      .   S
    N5     O12       4.67508  1_545   S
    Zr6    O13       1.86296      .   S
    N3     O13       4.66832      .   S
    Zr6    O14       1.90944      .   S
    N3     O14       4.62394  1_556   S
    Zr6    O15       1.90544      .   S
    N5     O15       4.61735      .   S
    Zr6    O16       1.46014      .   S
    N4     O16       4.85353  1_556   S
    Zr17   O18       1.86268      .   S
    N1     O18       4.66807      .   S
    Zr17   O19       1.90953      .   S
    N1     O19       4.62439  1_554   S
    Zr17   O20       1.86562      .   S
    N0     O20       4.67521  1_565   S
    Zr17   O21       1.90539      .   S
    N0     O21       4.61721      .   S
    Zr17   O22       1.45827      .   S
    N4     O22       4.84881      .   S
    Zr17   O23       1.90549      .   S
    N1     O23       4.61745      .   S
    Zr17   O24       1.90946      .   S
    N0     O24       4.62381  1_565   S
    Zr17   O25       1.46008      .   S
    N2     O25       4.85197  1_565   S
    Zr17   O26       1.86258      .   S
    N0     O26       4.66779      .   S
    Zr17   O27       1.86585      .   S
    N1     O27       4.67564  1_554   S
