# CIF file generated by openbabel 2.4.90, see http://openbabel.sf.net
data_I
_chemical_name_common ''
_cell_length_a 13.144
_cell_length_b 13.013
_cell_length_c 23.511
_cell_angle_alpha 90
_cell_angle_beta 90
_cell_angle_gamma 90
_space_group_name_H-M_alt 'P 1'
_space_group_name_Hall 'P 1'
loop_
    _symmetry_equiv_pos_as_xyz
    x,y,z
loop_
    _atom_site_label
    _atom_site_type_symbol
    _atom_site_fract_x
    _atom_site_fract_y
    _atom_site_fract_z
    _atom_site_occupancy
    Zn0     Zn   0.40331   0.00000   0.00000   1.000
    Zn1     Zn   0.00000   0.59842   0.49999   1.000
    Zn2     Zn   0.00000   0.40162   0.49999   1.000
    Zn3     Zn   0.59669   0.00000   0.00000   1.000
    C4      C    0.50000   0.85748   0.92197   1.000
    C5      C    0.50000   0.14255   0.92197   1.000
    C6      C    0.14179   0.49998   0.42240   1.000
    C7      C    0.85821   0.50005   0.42244   1.000
    C8      C    0.50000   0.85747   0.07801   1.000
    C9      C    0.50000   0.14255   0.07801   1.000
    C10     C    0.85821   0.49998   0.57755   1.000
    C11     C    0.14180   0.50005   0.57755   1.000
    O12     O    0.58658   0.88984   0.93927   1.000
    O13     O    0.41342   0.11019   0.93927   1.000
    O14     O    0.10912   0.58740   0.43940   1.000
    O15     O    0.89088   0.41263   0.43940   1.000
    O16     O    0.41342   0.88983   0.06071   1.000
    O17     O    0.58658   0.11018   0.06071   1.000
    O18     O    0.89088   0.58740   0.56058   1.000
    O19     O    0.10913   0.41263   0.56058   1.000
    O20     O    0.41342   0.11018   0.06071   1.000
    O21     O    0.58658   0.88984   0.06071   1.000
    O22     O    0.89057   0.41252   0.56040   1.000
    O23     O    0.10944   0.58751   0.56047   1.000
    O24     O    0.58658   0.11018   0.93927   1.000
    O25     O    0.41342   0.88984   0.93927   1.000
    O26     O    0.10943   0.41252   0.43951   1.000
    O27     O    0.89057   0.58751   0.43951   1.000
loop_
    _geom_bond_atom_site_label_1
    _geom_bond_atom_site_label_2
    _geom_bond_distance
    _geom_bond_site_symmetry_2
    _ccdc_geom_bond_type
    Zn0    O20       2.02750      .   S
    Zn0    O16       2.02735  1_545   S
    Zn0    O13       2.02790  1_554   S
    Zn0    O25       2.02763  1_544   S
    Zn3    O21       2.02732  1_545   S
    Zn3    O17       2.02753      .   S
    Zn3    O24       2.02786  1_554   S
    Zn3    O12       2.02765  1_544   S
    O21    C8        1.27980      .   S
    O20    C9        1.27980      .   S
    O17    C9        1.27976      .   S
    O16    C8        1.27976      .   S
    C6     O14       1.27994      .   S
    C6     O26       1.27982      .   S
    C7     O15       1.27964      .   S
    C7     O27       1.27953      .   S
    O14    Zn1       2.02657      .   S
    O15    Zn2       2.02658  1_655   S
    O27    Zn1       2.02760  1_655   S
    O26    Zn2       2.02756      .   S
    Zn2    O22       2.02641  1_455   S
    Zn2    O19       2.02660      .   S
    Zn1    O23       2.02758      .   S
    Zn1    O18       2.02659  1_455   S
    O22    C10       1.28013      .   S
    O23    C11       1.27960      .   S
    O19    C11       1.27971      .   S
    O18    C10       1.27972      .   S
    C4     O25       1.27978      .   S
    C4     O12       1.27977      .   S
    C5     O13       1.27976      .   S
    C5     O24       1.27978      .   S
    Zn3    Zn0       2.54176      .   S
    Zn1    Zn2       2.56095      .   S
