# CIF file generated by openbabel 2.4.90, see http://openbabel.sf.net
data_I
_chemical_name_common ''
_cell_length_a 13.144
_cell_length_b 13.013
_cell_length_c 23.511
_cell_angle_alpha 90
_cell_angle_beta 90
_cell_angle_gamma 90
_space_group_name_H-M_alt 'P 1'
_space_group_name_Hall 'P 1'
loop_
    _symmetry_equiv_pos_as_xyz
    x,y,z
loop_
    _atom_site_label
    _atom_site_type_symbol
    _atom_site_fract_x
    _atom_site_fract_y
    _atom_site_fract_z
    _atom_site_occupancy
    N0      N    0.50000   0.50001   0.74894   1.000
    N1      N    0.50000   0.50001   0.25104   1.000
    Zr2     Zr   0.50000   0.00001   0.99999   1.000
    O3      O    0.50000   0.82903   0.08776   1.000
    O4      O    0.50000   0.82903   0.91222   1.000
    O5      O    0.50000   0.17100   0.08776   1.000
    O6      O    0.50000   0.17100   0.91222   1.000
    Zr7     Zr   0.00000   0.50001   0.49998   1.000
    O8      O    0.82913   0.50002   0.41296   1.000
    O9      O    0.17087   0.50002   0.58701   1.000
    O10     O    0.82913   0.50001   0.58701   1.000
    O11     O    0.17087   0.50001   0.41296   1.000
loop_
    _geom_bond_atom_site_label_1
    _geom_bond_atom_site_label_2
    _geom_bond_distance
    _geom_bond_site_symmetry_2
    _ccdc_geom_bond_type
    Zr2    O3        3.03456  1_546   S
    N1     O3        5.75049      .   S
    Zr2    O4        3.03459  1_545   S
    N0     O4        5.75058      .   S
    Zr2    O5        3.03456  1_556   S
    N1     O5        5.75050      .   S
    Zr2    O6        3.03462      .   S
    N0     O6        5.75061      .   S
    Zr7    O8        3.03809  1_455   S
    N1     O8        5.76268      .   S
    Zr7    O9        3.03821      .   S
    N0     O9        5.76267      .   S
    Zr7    O10       3.03820  1_455   S
    N0     O10       5.76266      .   S
    Zr7    O11       3.03817      .   S
    N1     O11       5.76260      .   S
