# CIF file generated by openbabel 2.4.90, see http://openbabel.sf.net
data_I
_chemical_name_common 'VESTA_phase_1'
_cell_length_a 22.222
_cell_length_b 16.168
_cell_length_c 15.922
_cell_angle_alpha 89.998
_cell_angle_beta 91.136
_cell_angle_gamma 89.999
_space_group_name_H-M_alt 'P 1'
_space_group_name_Hall 'P 1'
loop_
    _symmetry_equiv_pos_as_xyz
    x,y,z
loop_
    _atom_site_label
    _atom_site_type_symbol
    _atom_site_fract_x
    _atom_site_fract_y
    _atom_site_fract_z
    _atom_site_occupancy
    Zn0     Zn   0.25022   0.50000   0.58640   1.000
    Zn1     Zn   0.75022   0.50000   0.58640   1.000
    Zn2     Zn   0.24979   0.50001   0.41356   1.000
    Zn3     Zn   0.74979   0.50001   0.41356   1.000
    H4      H    0.06935   0.83681   0.36492   1.000
    H5      H    0.56936   0.83681   0.36492   1.000
    H6      H    0.12739   0.70234   0.63514   1.000
    H7      H    0.62740   0.70234   0.63514   1.000
    H8      H    0.12819   0.70493   0.36611   1.000
    H9      H    0.62819   0.70493   0.36611   1.000
    H10     H    0.06839   0.83405   0.63504   1.000
    H11     H    0.56839   0.83405   0.63504   1.000
    H12     H    0.43065   0.83681   0.63504   1.000
    H13     H    0.93065   0.83681   0.63504   1.000
    H14     H    0.37261   0.70235   0.36482   1.000
    H15     H    0.87261   0.70235   0.36482   1.000
    H16     H    0.37181   0.70493   0.63385   1.000
    H17     H    0.87182   0.70493   0.63385   1.000
    H18     H    0.43162   0.83406   0.36492   1.000
    H19     H    0.93162   0.83406   0.36492   1.000
    H20     H    0.43065   0.16319   0.63504   1.000
    H21     H    0.93065   0.16319   0.63504   1.000
    H22     H    0.37261   0.29767   0.36482   1.000
    H23     H    0.87261   0.29767   0.36482   1.000
    H24     H    0.37182   0.29507   0.63385   1.000
    H25     H    0.87182   0.29507   0.63380   1.000
    H26     H    0.43162   0.16596   0.36492   1.000
    H27     H    0.93162   0.16596   0.36492   1.000
    H28     H    0.06936   0.16320   0.36492   1.000
    H29     H    0.56936   0.16320   0.36492   1.000
    H30     H    0.12739   0.29766   0.63514   1.000
    H31     H    0.62740   0.29765   0.63514   1.000
    H32     H    0.12819   0.29508   0.36611   1.000
    H33     H    0.62820   0.29507   0.36611   1.000
    H34     H    0.06839   0.16595   0.63504   1.000
    H35     H    0.56839   0.16595   0.63504   1.000
    H36     H    0.34888   0.49998   0.71426   1.000
    H37     H    0.84888   0.50000   0.71426   1.000
    H38     H    0.16325   0.50000   0.72737   1.000
    H39     H    0.66326   0.50000   0.72737   1.000
    H40     H    0.16687   0.49999   0.88630   1.000
    H41     H    0.66687   0.50000   0.88637   1.000
    H42     H    0.36051   0.49997   0.87325   1.000
    H43     H    0.86052   0.50000   0.87325   1.000
    H44     H    0.15113   0.50003   0.28570   1.000
    H45     H    0.65113   0.50001   0.28570   1.000
    H46     H    0.33675   0.50001   0.27200   1.000
    H47     H    0.83676   0.50001   0.27259   1.000
    H48     H    0.33313   0.50001   0.11359   1.000
    H49     H    0.83314   0.50001   0.11359   1.000
    H50     H    0.13949   0.50004   0.12671   1.000
    H51     H    0.63949   0.50001   0.12671   1.000
    C52     C    0.13110   0.69561   0.50060   1.000
    C53     C    0.63110   0.69561   0.50060   1.000
    C54     C    0.03176   0.92388   0.49978   1.000
    C55     C    0.53176   0.92388   0.49978   1.000
    C56     C    0.08166   0.80693   0.42422   1.000
    C57     C    0.58166   0.80693   0.42422   1.000
    C58     C    0.11387   0.73202   0.57630   1.000
    C59     C    0.61388   0.73202   0.57630   1.000
    C60     C    0.11433   0.73348   0.42458   1.000
    C61     C    0.61433   0.73348   0.42458   1.000
    C62     C    0.06515   0.84397   0.49994   1.000
    C63     C    0.56516   0.84397   0.49994   1.000
    C64     C    0.16957   0.61941   0.50134   1.000
    C65     C    0.66957   0.61941   0.50134   1.000
    C66     C    0.08112   0.80540   0.57599   1.000
    C67     C    0.58113   0.80540   0.57599   1.000
    C68     C    0.36890   0.69562   0.49900   1.000
    C69     C    0.86891   0.69562   0.49929   1.000
    C70     C    0.46825   0.92389   0.50018   1.000
    C71     C    0.96825   0.92389   0.50018   1.000
    C72     C    0.41835   0.80693   0.57574   1.000
    C73     C    0.91835   0.80693   0.57574   1.000
    C74     C    0.38613   0.73203   0.42360   1.000
    C75     C    0.88614   0.73203   0.42361   1.000
    C76     C    0.38567   0.73348   0.57538   1.000
    C77     C    0.88568   0.73348   0.57538   1.000
    C78     C    0.43485   0.84397   0.50002   1.000
    C79     C    0.93485   0.84397   0.50002   1.000
    C80     C    0.33044   0.61941   0.49862   1.000
    C81     C    0.83044   0.61941   0.49862   1.000
    C82     C    0.41888   0.80541   0.42397   1.000
    C83     C    0.91888   0.80541   0.42397   1.000
    C84     C    0.36891   0.30439   0.49930   1.000
    C85     C    0.86891   0.30439   0.49930   1.000
    C86     C    0.46825   0.07612   0.50018   1.000
    C87     C    0.96825   0.07612   0.50018   1.000
    C88     C    0.41835   0.19307   0.57574   1.000
    C89     C    0.91835   0.19307   0.57574   1.000
    C90     C    0.38613   0.26799   0.42362   1.000
    C91     C    0.88613   0.26799   0.42362   1.000
    C92     C    0.38568   0.26653   0.57538   1.000
    C93     C    0.88568   0.26653   0.57538   1.000
    C94     C    0.43485   0.15604   0.50002   1.000
    C95     C    0.93486   0.15604   0.50002   1.000
    C96     C    0.33044   0.38060   0.49862   1.000
    C97     C    0.83044   0.38060   0.49862   1.000
    C98     C    0.41888   0.19461   0.42397   1.000
    C99     C    0.91888   0.19461   0.42397   1.000
    C100    C    0.13110   0.30439   0.50067   1.000
    C101    C    0.63110   0.30439   0.50067   1.000
    C102    C    0.03176   0.07612   0.49978   1.000
    C103    C    0.53176   0.07612   0.49978   1.000
    C104    C    0.08166   0.19308   0.42422   1.000
    C105    C    0.58166   0.19307   0.42422   1.000
    C106    C    0.11387   0.26798   0.57635   1.000
    C107    C    0.61388   0.26798   0.57635   1.000
    C108    C    0.11433   0.26653   0.42458   1.000
    C109    C    0.61434   0.26653   0.42458   1.000
    C110    C    0.06515   0.15603   0.49994   1.000
    C111    C    0.56516   0.15603   0.49994   1.000
    C112    C    0.16957   0.38060   0.50134   1.000
    C113    C    0.66957   0.38059   0.50134   1.000
    C114    C    0.08113   0.19460   0.57599   1.000
    C115    C    0.58113   0.19460   0.57599   1.000
    C116    C    0.31020   0.49998   0.75530   1.000
    C117    C    0.81020   0.50000   0.75530   1.000
    C118    C    0.20568   0.50000   0.76290   1.000
    C119    C    0.70569   0.50000   0.76293   1.000
    C120    C    0.20780   0.49999   0.85001   1.000
    C121    C    0.70780   0.50000   0.85000   1.000
    C122    C    0.26442   0.49999   0.89077   1.000
    C123    C    0.76442   0.50000   0.89070   1.000
    C124    C    0.31634   0.49998   0.84240   1.000
    C125    C    0.81634   0.50000   0.84240   1.000
    C126    C    0.18981   0.50002   0.24466   1.000
    C127    C    0.68981   0.50001   0.24466   1.000
    C128    C    0.29432   0.50001   0.23703   1.000
    C129    C    0.79432   0.50001   0.23703   1.000
    C130    C    0.29221   0.50001   0.14996   1.000
    C131    C    0.79221   0.50001   0.14990   1.000
    C132    C    0.23559   0.50002   0.10900   1.000
    C133    C    0.73559   0.50001   0.10920   1.000
    C134    C    0.18367   0.50003   0.15756   1.000
    C135    C    0.68367   0.50001   0.15756   1.000
    C136    C    0.06209   1.00000   0.49962   1.000
    C137    C    0.56209   1.00000   0.49962   1.000
    C138    C    0.43792   0.00000   0.50034   1.000
    C139    C    0.93792   0.00000   0.50034   1.000
    Br140   Br   0.14868   0.99999   0.49982   1.000
    Br141   Br   0.64868   0.99999   0.49982   1.000
    Br142   Br   0.35133   0.00001   0.50014   1.000
    Br143   Br   0.85133   0.00001   0.50014   1.000
    N144    N    0.25588   0.49999   0.71640   1.000
    N145    N    0.75589   0.50000   0.71640   1.000
    N146    N    0.27420   0.49998   0.97915   1.000
    N147    N    0.77420   0.50000   0.97915   1.000
    N148    N    0.24412   0.50001   0.28351   1.000
    N149    N    0.74412   0.50001   0.28351   1.000
    N150    N    0.22581   0.50002   0.02081   1.000
    N151    N    0.72581   0.50001   0.02081   1.000
    O152    O    0.18496   0.59052   0.43041   1.000
    O153    O    0.68496   0.59052   0.43041   1.000
    O154    O    0.18521   0.59031   0.57295   1.000
    O155    O    0.68521   0.59031   0.57295   1.000
    O156    O    0.31505   0.59052   0.56955   1.000
    O157    O    0.81505   0.59052   0.56955   1.000
    O158    O    0.31480   0.59032   0.42701   1.000
    O159    O    0.81480   0.59032   0.42701   1.000
    O160    O    0.31505   0.40949   0.56955   1.000
    O161    O    0.81505   0.40949   0.56955   1.000
    O162    O    0.31480   0.40969   0.42701   1.000
    O163    O    0.81480   0.40969   0.42701   1.000
    O164    O    0.18496   0.40949   0.43041   1.000
    O165    O    0.68496   0.40949   0.43041   1.000
    O166    O    0.18521   0.40969   0.57295   1.000
    O167    O    0.68521   0.40969   0.57295   1.000
loop_
    _geom_bond_atom_site_label_1
    _geom_bond_atom_site_label_2
    _geom_bond_distance
    _geom_bond_site_symmetry_2
    _ccdc_geom_bond_type
    N151   C133      1.41976      .   S
    N151   N147      1.27444  1_554   S
    N150   C132      1.41660      .   S
    N150   N146      1.27444  1_554   S
    C132   C130      1.40562      .   S
    C132   C134      1.40161      .   S
    C133   C131      1.40380      .   S
    C133   C135      1.39980      .   S
    H48    C130      1.08783      .   S
    H49    C131      1.08731      .   S
    H50    C134      1.08897      .   S
    H51    C135      1.08897      .   S
    C131   C129      1.38715      .   S
    C130   C128      1.38619      .   S
    C134   C126      1.39081      .   S
    C135   C127      1.39081      .   S
    C129   H47       1.09019      .   S
    C129   N149      1.35087      .   S
    C128   H46       1.08550      .   S
    C128   N148      1.35089      .   S
    C126   N148      1.34525      .   S
    C126   H44       1.09002      .   S
    C127   N149      1.34527      .   S
    C127   H45       1.09004      .   S
    N148   Zn2       2.07199      .   S
    N149   Zn3       2.07199      .   S
    H23    C91       1.08899      .   S
    H22    C90       1.08898      .   S
    H15    C75       1.08885      .   S
    H14    C74       1.08871      .   S
    H4     C56       1.09057      .   S
    H5     C57       1.09057      .   S
    H26    C98       1.09055      .   S
    H27    C99       1.09055      .   S
    H28    C104      1.09056      .   S
    H29    C105      1.09057      .   S
    H19    C83       1.09055      .   S
    H18    C82       1.09054      .   S
    H33    C109      1.08898      .   S
    H8     C60       1.08900      .   S
    H9     C61       1.08899      .   S
    H32    C108      1.08898      .   S
    Zn3    O163      2.06216      .   S
    Zn3    O159      2.06223      .   S
    Zn3    O153      2.07466      .   S
    Zn3    O165      2.07473      .   S
    Zn2    O162      2.06216      .   S
    Zn2    O158      2.06223      .   S
    Zn2    O152      2.07467      .   S
    Zn2    O164      2.07474      .   S
    C74    C82       1.39172      .   S
    C74    C68       1.39732      .   S
    C75    C83       1.39170      .   S
    C75    C69       1.40118      .   S
    C90    C98       1.39172      .   S
    C90    C84       1.40116      .   S
    C91    C99       1.39171      .   S
    C91    C85       1.40117      .   S
    C98    C94       1.40143      .   S
    C83    C79       1.40144      .   S
    C82    C78       1.40144      .   S
    C99    C95       1.40143      .   S
    C56    C60       1.39194      .   S
    C56    C62       1.40147      .   S
    C105   C109      1.39194      .   S
    C105   C111      1.40149      .   S
    C104   C108      1.39196      .   S
    C104   C110      1.40148      .   S
    C57    C61       1.39194      .   S
    C57    C63       1.40148      .   S
    C109   C101      1.40122      .   S
    C108   C100      1.40122      .   S
    C60    C52       1.40026      .   S
    C61    C53       1.40025      .   S
    O163   C97       1.27526      .   S
    O162   C96       1.27527      .   S
    O159   C81       1.27528      .   S
    O158   C80       1.27528      .   S
    O152   C64       1.27513      .   S
    O153   C65       1.27513      .   S
    O164   C112      1.27511      .   S
    O165   C113      1.27512      .   S
    C97    C85       1.49955      .   S
    C97    O161      1.27513      .   S
    C81    C69       1.49956      .   S
    C81    O157      1.27512      .   S
    C80    C68       1.49959      .   S
    C80    O156      1.27511      .   S
    C96    C84       1.49955      .   S
    C96    O160      1.27512      .   S
    C68    C76       1.40520      .   S
    C69    C77       1.40122      .   S
    C85    C93       1.40108      .   S
    C84    C92       1.40107      .   S
    C136   C102      1.40324  1_565   S
    C136   C54       1.40308      .   S
    C136   Br140     1.92414      .   S
    C137   C103      1.40323  1_565   S
    C137   C55       1.40311      .   S
    C137   Br141     1.92414      .   S
    C103   C111      1.48999      .   S
    C103   C86       1.41155      .   S
    C102   C110      1.49001      .   S
    C102   C87       1.41135  1_455   S
    C55    C63       1.48998      .   S
    C55    C70       1.41155      .   S
    C54    C62       1.48999      .   S
    C54    C71       1.41137  1_455   S
    C111   C115      1.40144      .   S
    C110   C114      1.40144      .   S
    C63    C67       1.40143      .   S
    C62    C66       1.40143      .   S
    C78    C70       1.49000      .   S
    C78    C72       1.40148      .   S
    C79    C71       1.49000      .   S
    C79    C73       1.40148      .   S
    C94    C86       1.48998      .   S
    C94    C88       1.40147      .   S
    C95    C87       1.48999      .   S
    C95    C89       1.40147      .   S
    Br143  C139      1.92414      .   S
    Br142  C138      1.92414      .   S
    C71    C139      1.40313  1_565   S
    C70    C138      1.40314  1_565   S
    C86    C138      1.40324      .   S
    C87    C139      1.40324      .   S
    C52    C64       1.49952      .   S
    C52    C58       1.40145      .   S
    C53    C65       1.49953      .   S
    C53    C59       1.40145      .   S
    C100   C112      1.49956      .   S
    C100   C106      1.40118      .   S
    C101   C113      1.49956      .   S
    C101   C107      1.40118      .   S
    C64    O154      1.27527      .   S
    C65    O155      1.27526      .   S
    C113   O167      1.27528      .   S
    C112   O166      1.27528      .   S
    O156   Zn0       2.07472      .   S
    O157   Zn1       2.07473      .   S
    O160   Zn0       2.07465      .   S
    O161   Zn1       2.07466      .   S
    O154   Zn0       2.06218      .   S
    O155   Zn1       2.06217      .   S
    O166   Zn0       2.06226      .   S
    O167   Zn1       2.06223      .   S
    C92    C88       1.39195      .   S
    C92    H24       1.08899      .   S
    C93    C89       1.39194      .   S
    C93    H25       1.08831      .   S
    C77    C73       1.39194      .   S
    C77    H17       1.08898      .   S
    C76    C72       1.39193      .   S
    C76    H16       1.08899      .   S
    C88    H20       1.09056      .   S
    C89    H21       1.09057      .   S
    C73    H13       1.09056      .   S
    C72    H12       1.09057      .   S
    C67    C59       1.39172      .   S
    C67    H11       1.09055      .   S
    C66    C58       1.39172      .   S
    C66    H10       1.09055      .   S
    C115   C107      1.39170      .   S
    C115   H35       1.09055      .   S
    C114   C106      1.39171      .   S
    C114   H34       1.09054      .   S
    C59    H7        1.08953      .   S
    C58    H6        1.08953      .   S
    C107   H31       1.08885      .   S
    C106   H30       1.08885      .   S
    Zn0    N144      2.07119      .   S
    Zn1    N145      2.07120      .   S
    H37    C117      1.09002      .   S
    H36    C116      1.09004      .   S
    N144   C116      1.34562      .   S
    N144   C118      1.35103      .   S
    N145   C117      1.34560      .   S
    N145   C119      1.35134      .   S
    H39    C119      1.09019      .   S
    H38    C118      1.08995      .   S
    C116   C124      1.39081      .   S
    C117   C125      1.39081      .   S
    C118   C120      1.38683      .   S
    C119   C121      1.38619      .   S
    C124   H42       1.08897      .   S
    C124   C122      1.39987      .   S
    C125   H43       1.08897      .   S
    C125   C123      1.39926      .   S
    C121   H41       1.08783      .   S
    C121   C123      1.40378      .   S
    C120   H40       1.08713      .   S
    C120   C122      1.40422      .   S
    C123   N147      1.42070      .   S
    C122   N146      1.41960      .   S
    Zn0    Zn2       2.75179      .   S
    Zn1    Zn3       2.75179      .   S
