# CIF file generated by openbabel 2.4.90, see http://openbabel.sf.net
data_I
_chemical_name_common ''
_cell_length_a 25.575
_cell_length_b 12.77
_cell_length_c 17.715
_cell_angle_alpha 89.717
_cell_angle_beta 105.363
_cell_angle_gamma 90.194
_space_group_name_H-M_alt 'P 1'
_space_group_name_Hall 'P 1'
loop_
    _symmetry_equiv_pos_as_xyz
    x,y,z
loop_
    _atom_site_label
    _atom_site_type_symbol
    _atom_site_fract_x
    _atom_site_fract_y
    _atom_site_fract_z
    _atom_site_occupancy
    Zn0     Zn   0.54256   0.74315   0.76641   1.000
    Zn1     Zn   0.12449   0.93777   0.79073   1.000
    Zn2     Zn   0.62448   0.93777   0.79073   1.000
    Zn3     Zn   0.20661   0.24796   0.73477   1.000
    Zn4     Zn   0.70660   0.24796   0.73477   1.000
    Zn5     Zn   0.12467   0.43999   0.70925   1.000
    Zn6     Zn   0.62466   0.43999   0.70925   1.000
    Zn7     Zn   0.45733   0.25680   0.23365   1.000
    Zn8     Zn   0.95732   0.25680   0.23365   1.000
    Zn9     Zn   0.37537   0.06221   0.20936   1.000
    Zn10    Zn   0.87536   0.06221   0.20936   1.000
    Zn11    Zn   0.29335   0.75213   0.26517   1.000
    Zn12    Zn   0.79334   0.75213   0.26517   1.000
    Zn13    Zn   0.37529   0.55998   0.29073   1.000
    Zn14    Zn   0.87528   0.55998   0.29073   1.000
    C15     C    0.15169   0.73969   0.87609   1.000
    C16     C    0.65168   0.73969   0.87609   1.000
    C17     C    0.30631   0.58026   0.15473   1.000
    C18     C    0.80630   0.58026   0.15473   1.000
    C19     C    0.21863   0.08480   0.84042   1.000
    Zn20    Zn   0.04257   0.74315   0.76641   1.000
    C21     C    0.71862   0.08480   0.84042   1.000
    C22     C    0.03381   0.91866   0.86644   1.000
    C23     C    0.53380   0.91866   0.86644   1.000
    C24     C    0.09909   0.24276   0.62260   1.000
    C25     C    0.59908   0.24276   0.62260   1.000
    C26     C    0.44599   0.07972   0.34456   1.000
    C27     C    0.94598   0.07973   0.34456   1.000
    C28     C    0.02990   0.58477   0.65914   1.000
    C29     C    0.52989   0.58478   0.65914   1.000
    C30     C    0.21624   0.42489   0.63591   1.000
    C31     C    0.71622   0.42489   0.63591   1.000
    C32     C    0.34823   0.26028   0.12394   1.000
    C33     C    0.84821   0.26028   0.12394   1.000
    C34     C    0.19364   0.41972   0.84526   1.000
    C35     C    0.69363   0.41972   0.84526   1.000
    C36     C    0.28085   0.91555   0.15952   1.000
    C37     C    0.78084   0.91555   0.15952   1.000
    O38     O    0.57777   0.84402   0.70246   1.000
    O39     O    0.42805   0.44879   0.29140   1.000
    O40     O    0.92804   0.44879   0.29142   1.000
    O41     O    0.99818   0.34057   0.32473   1.000
    C42     C    0.46596   0.08115   0.13359   1.000
    C43     C    0.96595   0.08115   0.13359   1.000
    C44     C    0.40087   0.75726   0.37730   1.000
    C45     C    0.90086   0.75726   0.37736   1.000
    C46     C    0.05395   0.92022   0.65540   1.000
    C47     C    0.55395   0.92022   0.65545   1.000
    C48     C    0.47007   0.41520   0.34088   1.000
    C49     C    0.97006   0.41520   0.34088   1.000
    C50     C    0.28373   0.57511   0.36400   1.000
    C51     C    0.78372   0.57511   0.36407   1.000
    O52     O    0.16936   0.82189   0.85038   1.000
    O53     O    0.66935   0.82189   0.85038   1.000
    O54     O    0.10513   0.69789   0.85184   1.000
    O55     O    0.60512   0.69789   0.85184   1.000
    O56     O    0.31856   0.48802   0.17100   1.000
    O57     O    0.81855   0.48802   0.17100   1.000
    O58     O    0.33019   0.65638   0.20141   1.000
    O59     O    0.83018   0.65638   0.20141   1.000
    O60     O    0.17714   0.04980   0.79078   1.000
    O61     O    0.67712   0.04980   0.79078   1.000
    O62     O    0.24641   0.16093   0.82474   1.000
    O63     O    0.74640   0.16093   0.82474   1.000
    O64     O    0.07439   0.96804   0.85574   1.000
    O65     O    0.57438   0.96805   0.85574   1.000
    O66     O    0.50923   0.84045   0.82850   1.000
    O67     O    0.00000   0.84045   0.82856   1.000
    O68     O    0.08102   0.32497   0.64690   1.000
    O69     O    0.58101   0.32497   0.64696   1.000
    O70     O    0.14544   0.20103   0.64838   1.000
    O71     O    0.64543   0.20103   0.64830   1.000
    O72     O    0.43338   0.98750   0.32850   1.000
    O73     O    0.93337   0.98750   0.32850   1.000
    O74     O    0.42212   0.15597   0.29764   1.000
    O75     O    0.92212   0.15597   0.29764   1.000
    O76     O    0.07192   0.55118   0.70860   1.000
    O77     O    0.57191   0.55118   0.70860   1.000
    O78     O    0.50176   0.65938   0.67529   1.000
    O79     O    0.00000   0.65937   0.67500   1.000
    O80     O    0.17593   0.47456   0.64652   1.000
    O81     O    0.67592   0.47456   0.64652   1.000
    O82     O    0.24061   0.34677   0.67441   1.000
    O83     O    0.74060   0.34677   0.67441   1.000
    O84     O    0.33053   0.17813   0.14967   1.000
    O85     O    0.83052   0.17813   0.14967   1.000
    O86     O    0.39478   0.30209   0.14822   1.000
    O87     O    0.89477   0.30209   0.14822   1.000
    O88     O    0.18146   0.51198   0.82851   1.000
    O89     O    0.68144   0.51198   0.82851   1.000
    O90     O    0.16972   0.34365   0.79856   1.000
    O91     O    0.66970   0.34365   0.79856   1.000
    O92     O    0.32237   0.95067   0.20905   1.000
    O93     O    0.82236   0.95067   0.20905   1.000
    O94     O    0.25332   0.83908   0.17527   1.000
    O95     O    0.75331   0.83907   0.17527   1.000
    O96     O    0.42532   0.03185   0.14418   1.000
    O97     O    0.92531   0.03185   0.14418   1.000
    O98     O    0.99056   0.15930   0.17150   1.000
    O99     O    0.49055   0.15930   0.17150   1.000
    O100    O    0.41891   0.67500   0.35302   1.000
    O101    O    0.91890   0.67500   0.35302   1.000
    O102    O    0.35454   0.79909   0.35150   1.000
    O103    O    0.85453   0.79909   0.35152   1.000
    O104    O    0.06656   0.01245   0.67143   1.000
    O105    O    0.56655   0.01245   0.67143   1.000
    O106    O    0.07778   0.84402   0.70246   1.000
    O107    O    0.49818   0.34056   0.32473   1.000
    O108    O    0.32402   0.52541   0.35346   1.000
    O109    O    0.82401   0.52541   0.35346   1.000
    O110    O    0.25939   0.65327   0.32561   1.000
    O111    O    0.75938   0.65327   0.32561   1.000
    Og112   Og   0.16461   0.72295   0.89916   1.000
    Og113   Og   0.66460   0.72295   0.89916   1.000
    Og114   Og   0.29264   0.59124   0.13026   1.000
    Og115   Og   0.79263   0.59124   0.13026   1.000
    Og116   Og   0.22423   0.06998   0.86778   1.000
    Og117   Og   0.72422   0.06998   0.86778   1.000
    Og118   Og   0.02744   0.93204   0.88909   1.000
    Og119   Og   0.52743   0.93204   0.88909   1.000
    Og120   Og   0.08640   0.22583   0.59955   1.000
    Og121   Og   0.58639   0.22583   0.59955   1.000
    Og122   Og   0.45966   0.09087   0.36895   1.000
    Og123   Og   0.95965   0.09087   0.36895   1.000
    Og124   Og   0.02440   0.57007   0.63184   1.000
    Og125   Og   0.52439   0.57007   0.63183   1.000
    Og126   Og   0.22258   0.43764   0.61299   1.000
    Og127   Og   0.72257   0.43764   0.61299   1.000
    Og128   Og   0.33532   0.27701   0.10086   1.000
    Og129   Og   0.83531   0.27700   0.10086   1.000
    Og130   Og   0.20731   0.40871   0.86972   1.000
    Og131   Og   0.70730   0.40871   0.86972   1.000
    Og132   Og   0.27516   0.93039   0.13216   1.000
    Og133   Og   0.77515   0.93039   0.13216   1.000
    Og134   Og   0.47234   0.06778   0.11093   1.000
    Og135   Og   0.97233   0.06778   0.11095   1.000
    Og136   Og   0.41356   0.77418   0.40037   1.000
    Og137   Og   0.91355   0.77418   0.40041   1.000
    Og138   Og   0.04029   0.90906   0.63102   1.000
    Og139   Og   0.54028   0.90906   0.63105   1.000
    Og140   Og   0.47557   0.42991   0.36818   1.000
    Og141   Og   0.97557   0.42991   0.36818   1.000
    Og142   Og   0.27738   0.56236   0.38694   1.000
    Og143   Og   0.77737   0.56236   0.38698   1.000
loop_
    _geom_bond_atom_site_label_1
    _geom_bond_atom_site_label_2
    _geom_bond_distance
    _geom_bond_site_symmetry_2
    _ccdc_geom_bond_type
    C33    O87       1.27065      .   S
    C33    O85       1.27059      .   S
    C32    O86       1.27062      .   S
    C32    O84       1.27061      .   S
    C43    O97       1.26885      .   S
    C43    O98       1.27329      .   S
    C42    O96       1.26882      .   S
    C42    O99       1.27319      .   S
    O96    Zn9       1.97599      .   S
    O97    Zn10      1.97596      .   S
    O87    Zn8       1.97444      .   S
    O86    Zn7       1.97442      .   S
    O85    Zn10      1.99454      .   S
    O84    Zn9       1.99451      .   S
    C17    O56       1.23287      .   S
    C17    O58       1.31829      .   S
    C18    O57       1.23287      .   S
    C18    O59       1.31829      .   S
    C37    O95       1.27445      .   S
    C37    O93       1.26709      .   S
    C36    O94       1.27446      .   S
    C36    O92       1.26709      .   S
    O98    Zn8       2.00049      .   S
    O99    Zn7       2.00028      .   S
    O94    Zn11      1.98587      .   S
    O95    Zn12      1.98586      .   S
    O59    Zn12      2.06010      .   S
    O58    Zn11      2.06015      .   S
    O92    Zn9       1.96193  1_565   S
    O93    Zn10      1.96196  1_565   S
    Zn7    O74       2.06687      .   S
    Zn7    O107      1.98880      .   S
    Zn8    O75       2.06685      .   S
    Zn8    O41       1.98892      .   S
    Zn11   O110      1.99163      .   S
    Zn11   O102      1.97028      .   S
    Zn12   O111      1.99166      .   S
    Zn12   O103      1.97045      .   S
    Zn13   O39       1.95984      .   S
    Zn13   O100      1.99309      .   S
    Zn13   O108      1.97782      .   S
    Zn14   O40       1.95981      .   S
    Zn14   O101      1.99309      .   S
    Zn14   O109      1.97784      .   S
    O39    C48       1.26795      .   S
    O40    C49       1.26781      .   S
    O74    C26       1.31861      .   S
    O75    C27       1.31860      .   S
    O41    C49       1.27433      .   S
    O107   C48       1.27416      .   S
    O110   C50       1.27267      .   S
    O111   C51       1.27318      .   S
    O72    C26       1.23451  1_565   S
    O73    C27       1.23451  1_565   S
    O102   C44       1.27007      .   S
    O103   C45       1.27016      .   S
    O100   C44       1.27055      .   S
    O101   C45       1.27100      .   S
    O108   C50       1.26767      .   S
    O109   C51       1.26812      .   S
    C24    O68       1.27053      .   S
    C24    O70       1.27011      .   S
    C25    O69       1.27101      .   S
    C25    O71       1.26994      .   S
    C30    O80       1.26812      .   S
    C30    O82       1.27332      .   S
    C31    O81       1.26812      .   S
    C31    O83       1.27329      .   S
    O81    Zn6       1.97789      .   S
    O80    Zn5       1.97790      .   S
    O68    Zn5       1.99376      .   S
    O69    Zn6       1.99334      .   S
    O71    Zn4       1.97121      .   S
    O70    Zn3       1.97040      .   S
    C46    O104      1.23452  1_565   S
    C46    O106      1.31915      .   S
    C47    O105      1.23436  1_565   S
    C47    O38       1.31870      .   S
    C29    O78       1.27408      .   S
    C29    O77       1.26778      .   S
    C28    O79       1.30094      .   S
    C28    O76       1.26779      .   S
    O82    Zn3       1.99091      .   S
    O83    Zn4       1.99088      .   S
    O79    Zn20      2.00681      .   S
    O78    Zn0       1.98898      .   S
    O106   Zn20      2.06676      .   S
    O38    Zn0       2.06678      .   S
    O76    Zn5       1.95971      .   S
    O77    Zn6       1.95971      .   S
    Zn3    O90       2.06079      .   S
    Zn3    O62       1.98549      .   S
    Zn4    O91       2.06083      .   S
    Zn4    O63       1.98548      .   S
    Zn20   O67       2.14459      .   S
    Zn20   O54       1.97457      .   S
    Zn0    O66       1.99945      .   S
    Zn0    O55       1.97456      .   S
    Zn2    O61       1.96113  1_565   S
    Zn2    O53       1.99420      .   S
    Zn2    O65       1.97656      .   S
    Zn1    O60       1.96118  1_565   S
    Zn1    O52       1.99420      .   S
    Zn1    O64       1.97653      .   S
    O60    C19       1.26704      .   S
    O61    C21       1.26705      .   S
    O90    C34       1.31843      .   S
    O91    C35       1.31844      .   S
    O62    C19       1.27449      .   S
    O63    C21       1.27450      .   S
    O66    C23       1.27379      .   S
    O89    C35       1.23427      .   S
    O88    C34       1.23426      .   S
    O67    C22       1.37421      .   S
    O52    C15       1.27067      .   S
    O53    C16       1.27067      .   S
    O55    C16       1.27060      .   S
    O54    C15       1.27060      .   S
    O65    C23       1.26876      .   S
    O64    C22       1.26877      .   S
    O58    Zn13      2.09105      .   S
    O59    Zn14      2.09106      .   S
    O74    Zn9       2.08018      .   S
    O75    Zn10      2.08019      .   S
    O90    Zn5       2.09016      .   S
    O91    Zn6       2.09015      .   S
    O106   Zn1       2.07953      .   S
    O38    Zn2       2.07953      .   S
    C15    Og112     0.49987      .   S
    C16    Og113     0.49986      .   S
    C17    Og114     0.49917      .   S
    C18    Og115     0.49917      .   S
    C19    Og116     0.50367      .   S
    C21    Og117     0.50367      .   S
    C22    Og118     0.50219      .   S
    C23    Og119     0.50219      .   S
    C24    Og120     0.49891      .   S
    C25    Og121     0.49891      .   S
    C26    Og122     0.49944      .   S
    C27    Og123     0.49945      .   S
    C28    Og124     0.50358      .   S
    C29    Og125     0.50379      .   S
    C30    Og126     0.50169      .   S
    C31    Og127     0.50169      .   S
    C32    Og128     0.49984      .   S
    C33    Og129     0.49983      .   S
    C34    Og130     0.49916      .   S
    C35    Og131     0.49916      .   S
    C36    Og132     0.50395      .   S
    C37    Og133     0.50395      .   S
    C42    Og134     0.50254      .   S
    C43    Og135     0.50217      .   S
    C44    Og136     0.49916      .   S
    C45    Og137     0.49894      .   S
    C46    Og138     0.49922      .   S
    C47    Og139     0.49942      .   S
    C48    Og140     0.50356      .   S
    C49    Og141     0.50356      .   S
    C50    Og142     0.50210      .   S
    C51    Og143     0.50173      .   S
