# CIF file generated by openbabel 2.4.90, see http://openbabel.sf.net
data_I
_chemical_name_common ''
_cell_length_a 25.575
_cell_length_b 12.77
_cell_length_c 17.715
_cell_angle_alpha 89.717
_cell_angle_beta 105.363
_cell_angle_gamma 90.194
_space_group_name_H-M_alt 'P 1'
_space_group_name_Hall 'P 1'
loop_
    _symmetry_equiv_pos_as_xyz
    x,y,z
loop_
    _atom_site_label
    _atom_site_type_symbol
    _atom_site_fract_x
    _atom_site_fract_y
    _atom_site_fract_z
    _atom_site_occupancy
    Zr0     Zr   0.04257   0.74315   0.76641   1.000
    Zr1     Zr   0.54256   0.74315   0.76641   1.000
    Zr2     Zr   0.12449   0.93777   0.79073   1.000
    Zr3     Zr   0.62448   0.93777   0.79073   1.000
    Zr4     Zr   0.20661   0.24796   0.73477   1.000
    Zr5     Zr   0.70660   0.24796   0.73477   1.000
    Zr6     Zr   0.12467   0.43999   0.70925   1.000
    Zr7     Zr   0.62466   0.43999   0.70925   1.000
    Zr8     Zr   0.45733   0.25680   0.23365   1.000
    Zr9     Zr   0.95732   0.25680   0.23365   1.000
    Zr10    Zr   0.37537   0.06221   0.20936   1.000
    Zr11    Zr   0.87536   0.06221   0.20936   1.000
    Zr12    Zr   0.29335   0.75213   0.26517   1.000
    Zr13    Zr   0.79334   0.75213   0.26517   1.000
    Zr14    Zr   0.37529   0.55998   0.29073   1.000
    Zr15    Zr   0.87528   0.55998   0.29073   1.000
    N16     N    0.72807   0.65082   0.01363   1.000
    N17     N    0.74955   0.00008   0.99999   1.000
    N18     N    0.77186   0.34911   0.98636   1.000
    N19     N    0.49991   0.99993   0.00001   1.000
    N20     N    0.99991   0.99993   0.00001   1.000
    N21     N    0.27187   0.34911   0.98636   1.000
    N22     N    0.97603   0.84797   0.51450   1.000
    N23     N    0.22808   0.65082   0.01363   1.000
    N24     N    0.02393   0.15198   0.48548   1.000
    N25     N    0.47603   0.84797   0.51451   1.000
    N26     N    0.24956   0.00008   0.99999   1.000
    N27     N    0.49999   0.49999   0.49999   1.000
    N28     N    0.99999   0.49999   0.50000   1.000
    N29     N    0.52393   0.15198   0.48548   1.000
    N30     N    0.74996   0.49999   0.49995   1.000
    N31     N    0.24997   0.49999   0.49995   1.000
    C32     C    0.28905   0.58459   0.34769   1.000
    O33     O    0.31935   0.56364   0.33489   1.000
    O34     O    0.27557   0.55629   0.39843   1.000
    O35     O    0.28271   0.64365   0.32154   1.000
    C36     C    0.28551   0.90176   0.18128   1.000
    O37     O    0.27323   0.93535   0.12026   1.000
    O38     O    0.31719   0.95410   0.19524   1.000
    O39     O    0.27942   0.84868   0.20075   1.000
    C40     C    0.46061   0.09077   0.14976   1.000
    O41     O    0.43048   0.06890   0.16326   1.000
    O42     O    0.47417   0.06064   0.09978   1.000
    O43     O    0.46728   0.14941   0.17617   1.000
    C44     C    0.43383   0.07440   0.32357   1.000
    O45     O    0.43678   0.14039   0.29461   1.000
    O46     O    0.41629   0.09174   0.28853   1.000
    O47     O    0.46452   0.09930   0.37844   1.000
    C48     C    0.31835   0.57489   0.17571   1.000
    O49     O    0.31506   0.63957   0.20450   1.000
    O50     O    0.33555   0.59153   0.21089   1.000
    O51     O    0.28765   0.59933   0.12077   1.000
    C52     C    0.46543   0.40152   0.31900   1.000
    O53     O    0.43355   0.45295   0.30503   1.000
    O54     O    0.47729   0.43507   0.37996   1.000
    O55     O    0.47159   0.35010   0.29910   1.000
    C56     C    0.35785   0.24684   0.14061   1.000
    O57     O    0.35540   0.18350   0.16006   1.000
    O58     O    0.32911   0.28204   0.08923   1.000
    O59     O    0.39195   0.26314   0.16577   1.000
    C60     C    0.39144   0.74379   0.36061   1.000
    O61     O    0.35769   0.75970   0.33447   1.000
    O62     O    0.41970   0.77955   0.41191   1.000
    O63     O    0.39427   0.68064   0.34124   1.000
    C64     C    0.96061   0.09077   0.14976   1.000
    O65     O    0.93047   0.06890   0.16326   1.000
    O66     O    0.97416   0.06064   0.09979   1.000
    O67     O    0.96727   0.14941   0.17617   1.000
    C68     C    0.85784   0.24684   0.14061   1.000
    O69     O    0.82910   0.28204   0.08923   1.000
    O70     O    0.89194   0.26314   0.16577   1.000
    O71     O    0.85539   0.18350   0.16006   1.000
    C72     C    0.96543   0.40152   0.31901   1.000
    O73     O    0.93354   0.45295   0.30504   1.000
    O74     O    0.97729   0.43507   0.37996   1.000
    O75     O    0.97159   0.35010   0.29910   1.000
    C76     C    0.78904   0.58460   0.34771   1.000
    O77     O    0.81934   0.56364   0.33490   1.000
    O78     O    0.78270   0.64365   0.32155   1.000
    O79     O    0.77556   0.55629   0.39845   1.000
    C80     C    0.78550   0.90176   0.18128   1.000
    O81     O    0.81718   0.95410   0.19524   1.000
    O82     O    0.77322   0.93535   0.12026   1.000
    O83     O    0.77941   0.84868   0.20075   1.000
    C84     C    0.93382   0.07440   0.32357   1.000
    O85     O    0.93677   0.14040   0.29461   1.000
    O86     O    0.91628   0.09175   0.28853   1.000
    O87     O    0.96452   0.09930   0.37844   1.000
    C88     C    0.89143   0.74379   0.36063   1.000
    O89     O    0.89426   0.68064   0.34125   1.000
    O90     O    0.85768   0.75970   0.33449   1.000
    O91     O    0.91970   0.77955   0.41193   1.000
    C92     C    0.81834   0.57489   0.17571   1.000
    O93     O    0.81505   0.63957   0.20450   1.000
    O94     O    0.83554   0.59153   0.21089   1.000
    O95     O    0.78764   0.59933   0.12077   1.000
    C96     C    0.21406   0.09851   0.81865   1.000
    O97     O    0.22618   0.06492   0.87968   1.000
    O98     O    0.18244   0.04615   0.80470   1.000
    O99     O    0.22028   0.15147   0.79920   1.000
    C100    C    0.18161   0.42512   0.82411   1.000
    O101    O    0.21230   0.40064   0.87913   1.000
    O102    O    0.18488   0.36046   0.79539   1.000
    O103    O    0.16440   0.40847   0.78901   1.000
    C104    C    0.06610   0.92556   0.67643   1.000
    O105    O    0.03542   0.90065   0.62155   1.000
    O106    O    0.06314   0.85957   0.70543   1.000
    O107    O    0.08361   0.90823   0.71151   1.000
    C108    C    0.10852   0.25625   0.63929   1.000
    O109    O    0.08026   0.22046   0.58802   1.000
    O110    O    0.14227   0.24037   0.66543   1.000
    O111    O    0.10568   0.31937   0.65868   1.000
    C112    C    0.03607   0.90905   0.85025   1.000
    O113    O    0.02868   0.85043   0.82387   1.000
    O114    O    0.06775   0.93098   0.83674   1.000
    O115    O    0.02407   0.93919   0.90023   1.000
    C116    C    0.03394   0.59844   0.68091   1.000
    O117    O    0.02761   0.64985   0.70081   1.000
    O118    O    0.02238   0.56490   0.62000   1.000
    O119    O    0.06612   0.54701   0.69492   1.000
    C120    C    0.21093   0.41541   0.65228   1.000
    O121    O    0.18061   0.43634   0.66508   1.000
    O122    O    0.21727   0.35638   0.67844   1.000
    O123    O    0.22439   0.44370   0.60151   1.000
    C124    C    0.14206   0.75316   0.85944   1.000
    O125    O    0.17082   0.71793   0.91080   1.000
    O126    O    0.10796   0.73684   0.83428   1.000
    O127    O    0.14449   0.81649   0.84000   1.000
    C128    C    0.53914   0.90905   0.85023   1.000
    O129    O    0.56928   0.93098   0.83673   1.000
    O130    O    0.53252   0.85043   0.82384   1.000
    O131    O    0.52561   0.93919   0.90022   1.000
    C132    C    0.53452   0.59844   0.68101   1.000
    O133    O    0.52266   0.56490   0.62005   1.000
    O134    O    0.52834   0.64985   0.70093   1.000
    O135    O    0.56640   0.54701   0.69497   1.000
    C136    C    0.71092   0.41541   0.65228   1.000
    O137    O    0.72438   0.44370   0.60151   1.000
    O138    O    0.68060   0.43634   0.66508   1.000
    O139    O    0.71726   0.35639   0.67844   1.000
    C140    C    0.64205   0.75316   0.85944   1.000
    O141    O    0.60795   0.73684   0.83428   1.000
    O142    O    0.67081   0.71793   0.91080   1.000
    O143    O    0.64448   0.81649   0.84000   1.000
    C144    C    0.71405   0.09851   0.81865   1.000
    O145    O    0.72028   0.15147   0.79920   1.000
    O146    O    0.68243   0.04615   0.80470   1.000
    O147    O    0.72617   0.06492   0.87968   1.000
    C148    C    0.56609   0.92557   0.67645   1.000
    O149    O    0.56313   0.85958   0.70544   1.000
    O150    O    0.58361   0.90823   0.71152   1.000
    O151    O    0.53542   0.90065   0.62156   1.000
    C152    C    0.60851   0.25625   0.63929   1.000
    O153    O    0.60567   0.31937   0.65870   1.000
    O154    O    0.58025   0.22046   0.58802   1.000
    O155    O    0.64226   0.24037   0.66541   1.000
    C156    C    0.68159   0.42512   0.82411   1.000
    O157    O    0.68487   0.36046   0.79539   1.000
    O158    O    0.66439   0.40847   0.78901   1.000
    O159    O    0.71229   0.40064   0.87913   1.000
loop_
    _geom_bond_atom_site_label_1
    _geom_bond_atom_site_label_2
    _geom_bond_distance
    _geom_bond_site_symmetry_2
    _ccdc_geom_bond_type
    C32    O33       0.90483      .   S
    Zr14   O33       1.80401      .   S
    C32    O34       1.10347      .   S
    N31    O34       2.18797      .   S
    C32    O35       0.87586      .   S
    Zr12   O35       1.76583      .   S
    C36    O37       1.12594      .   S
    N26    O37       2.21169  1_546   S
    C36    O38       1.02765      .   S
    Zr10   O38       1.99365  1_545   S
    C36    O39       0.79255      .   S
    Zr12   O39       1.65020      .   S
    C40    O41       0.90816      .   S
    Zr10   O41       1.80795      .   S
    C40    O42       1.10405      .   S
    N19    O42       2.18907  1_565   S
    C40    O43       0.87696      .   S
    Zr8    O43       1.77088      .   S
    C44    O45       0.99745      .   S
    Zr8    O45       1.98283      .   S
    C44    O46       0.69806      .   S
    Zr10   O46       1.55866      .   S
    C44    O47       1.12218      .   S
    N29    O47       2.19903      .   S
    C48    O49       0.98833      .   S
    Zr12   O49       1.96630      .   S
    C48    O50       0.69452      .   S
    Zr14   O50       1.55921      .   S
    C48    O51       1.12031      .   S
    N23    O51       2.19502      .   S
    C52    O53       1.02598      .   S
    Zr14   O53       1.99066      .   S
    C52    O54       1.12768      .   S
    N27    O54       2.21497      .   S
    C52    O55       0.78278      .   S
    Zr8    O55       1.63808      .   S
    C56    O57       0.88606      .   S
    Zr10   O57       1.78281      .   S
    C56    O58       1.10210      .   S
    N21    O58       2.18557  1_556   S
    C56    O59       0.89246      .   S
    Zr8    O59       1.78399      .   S
    C60    O61       0.88830      .   S
    Zr12   O61       1.77593      .   S
    C60    O62       1.10035      .   S
    N25    O62       2.18227      .   S
    C60    O63       0.88854      .   S
    Zr14   O63       1.78574      .   S
    C64    O65       0.90821      .   S
    Zr11   O65       1.80800      .   S
    C64    O66       1.10390      .   S
    N20    O66       2.18918  1_565   S
    C64    O67       0.87696      .   S
    Zr9    O67       1.77093      .   S
    C68    O69       1.10209      .   S
    N18    O69       2.18556  1_556   S
    C68    O70       0.89248      .   S
    Zr9    O70       1.78402      .   S
    C68    O71       0.88605      .   S
    Zr11   O71       1.78280      .   S
    C72    O73       1.02602      .   S
    Zr15   O73       1.99070      .   S
    C72    O74       1.12767      .   S
    N28    O74       2.21503      .   S
    C72    O75       0.78281      .   S
    Zr9    O75       1.63814      .   S
    C76    O77       0.90493      .   S
    Zr15   O77       1.80416      .   S
    C76    O78       0.87596      .   S
    Zr13   O78       1.76597      .   S
    C76    O79       1.10344      .   S
    N30    O79       2.18770      .   S
    C80    O81       1.02765      .   S
    Zr11   O81       1.99367  1_545   S
    C80    O82       1.12594      .   S
    N17    O82       2.21168  1_546   S
    C80    O83       0.79254      .   S
    Zr13   O83       1.65020      .   S
    C84    O85       0.99745      .   S
    Zr9    O85       1.98281      .   S
    C84    O86       0.69806      .   S
    Zr11   O86       1.55867      .   S
    C84    O87       1.12221      .   S
    N24    O87       2.19911  1_455   S
    C88    O89       0.88864      .   S
    Zr15   O89       1.78585      .   S
    C88    O90       0.88832      .   S
    Zr13   O90       1.77604      .   S
    C88    O91       1.10030      .   S
    N22    O91       2.18205      .   S
    C92    O93       0.98834      .   S
    Zr13   O93       1.96629      .   S
    C92    O94       0.69452      .   S
    Zr15   O94       1.55921      .   S
    C92    O95       1.12031      .   S
    N16    O95       2.19501      .   S
    C96    O97       1.12604      .   S
    N26    O97       2.21260      .   S
    C96    O98       1.02683      .   S
    Zr2    O98       1.99206  1_565   S
    C96    O99       0.79218      .   S
    Zr4    O99       1.64943      .   S
    C100   O101      1.12135      .   S
    N21    O101      2.19614      .   S
    C100   O102      0.98737      .   S
    Zr4    O102      1.96536      .   S
    C100   O103      0.69370      .   S
    Zr6    O103      1.55798      .   S
    C104   O105      1.12213      .   S
    N22    O105      2.19884  1_655   S
    C104   O106      0.99786      .   S
    Zr0    O106      1.98334      .   S
    C104   O107      0.69839      .   S
    Zr2    O107      1.55871      .   S
    C108   O109      1.10009      .   S
    N24    O109      2.18180      .   S
    C108   O110      0.88840      .   S
    Zr4    O110      1.77614      .   S
    C108   O111      0.88837      .   S
    Zr6    O111      1.78579      .   S
    C112   O113      0.87765      .   S
    Zr0    O113      1.80212      .   S
    C112   O114      0.94494      .   S
    Zr2    O114      1.84452      .   S
    C112   O115      1.08365      .   S
    N20    O115      2.16881  1_654   S
    C116   O117      0.78399      .   S
    Zr0    O117      1.64057      .   S
    C116   O118      1.12685      .   S
    N28    O118      2.21434  1_655   S
    C116   O119      1.03148      .   S
    Zr6    O119      1.99587      .   S
    C120   O121      0.90504      .   S
    Zr6    O121      1.80435      .   S
    C120   O122      0.87557      .   S
    Zr4    O122      1.76505      .   S
    C120   O123      1.10372      .   S
    N31    O123      2.18847      .   S
    C124   O125      1.10214      .   S
    N23    O125      2.18566  1_554   S
    C124   O126      0.89249      .   S
    Zr0    O126      1.78410      .   S
    C124   O127      0.88594      .   S
    Zr2    O127      1.78249      .   S
    C128   O129      0.90861      .   S
    Zr3    O129      1.80892      .   S
    C128   O130      0.87652      .   S
    Zr1    O130      1.76983      .   S
    C128   O131      1.10399      .   S
    N19    O131      2.18885  1_554   S
    C132   O133      1.12781      .   S
    N27    O133      2.21518      .   S
    C132   O134      0.78298      .   S
    Zr1    O134      1.63845      .   S
    C132   O135      1.02592      .   S
    Zr7    O135      1.99053      .   S
    C136   O137      1.10369      .   S
    N30    O137      2.18842      .   S
    C136   O138      0.90503      .   S
    Zr7    O138      1.80432      .   S
    C136   O139      0.87557      .   S
    Zr5    O139      1.76504      .   S
    C140   O141      0.89248      .   S
    Zr1    O141      1.78409      .   S
    C140   O142      1.10214      .   S
    N16    O142      2.18565  1_554   S
    C140   O143      0.88595      .   S
    Zr3    O143      1.78251      .   S
    C144   O145      0.79218      .   S
    Zr5    O145      1.64943      .   S
    C144   O146      1.02682      .   S
    Zr3    O146      1.99202  1_565   S
    C144   O147      1.12604      .   S
    N17    O147      2.21261      .   S
    C148   O149      0.99779      .   S
    Zr1    O149      1.98327      .   S
    C148   O150      0.69829      .   S
    Zr3    O150      1.55860      .   S
    C148   O151      1.12211      .   S
    N25    O151      2.19891      .   S
    C152   O153      0.88850      .   S
    Zr7    O153      1.78570      .   S
    C152   O154      1.10002      .   S
    N29    O154      2.18170      .   S
    C152   O155      0.88833      .   S
    Zr5    O155      1.77634      .   S
    C156   O157      0.98737      .   S
    Zr5    O157      1.96537      .   S
    C156   O158      0.69369      .   S
    Zr7    O158      1.55797      .   S
    C156   O159      1.12136      .   S
    N18    O159      2.19616      .   S
