# CIF file generated by openbabel 2.4.90, see http://openbabel.sf.net
data_I
_chemical_name_common ''
_cell_length_a 25.575
_cell_length_b 12.77
_cell_length_c 17.715
_cell_angle_alpha 89.717
_cell_angle_beta 105.363
_cell_angle_gamma 90.194
_space_group_name_H-M_alt 'P 1'
_space_group_name_Hall 'P 1'
loop_
    _symmetry_equiv_pos_as_xyz
    x,y,z
loop_
    _atom_site_label
    _atom_site_type_symbol
    _atom_site_fract_x
    _atom_site_fract_y
    _atom_site_fract_z
    _atom_site_occupancy
    Zr0     Zr   0.04257   0.74315   0.76641   1.000
    Zr1     Zr   0.54256   0.74315   0.76641   1.000
    Zr2     Zr   0.12449   0.93777   0.79073   1.000
    Zr3     Zr   0.62448   0.93777   0.79073   1.000
    Zr4     Zr   0.20661   0.24796   0.73477   1.000
    Zr5     Zr   0.70660   0.24796   0.73477   1.000
    Zr6     Zr   0.12467   0.43999   0.70925   1.000
    Zr7     Zr   0.62466   0.43999   0.70925   1.000
    Zr8     Zr   0.45733   0.25680   0.23365   1.000
    Zr9     Zr   0.95732   0.25680   0.23365   1.000
    Zr10    Zr   0.37537   0.06221   0.20936   1.000
    Zr11    Zr   0.87536   0.06221   0.20936   1.000
    Zr12    Zr   0.29335   0.75213   0.26517   1.000
    Zr13    Zr   0.79334   0.75213   0.26517   1.000
    Zr14    Zr   0.37529   0.55998   0.29073   1.000
    Zr15    Zr   0.87528   0.55998   0.29073   1.000
    Zr16    Zr   0.15169   0.73969   0.87609   1.000
    Zr17    Zr   0.65168   0.73969   0.87609   1.000
    Zr18    Zr   0.30631   0.58026   0.15473   1.000
    Zr19    Zr   0.80630   0.58026   0.15473   1.000
    Zr20    Zr   0.21863   0.08480   0.84042   1.000
    Zr21    Zr   0.71862   0.08480   0.84042   1.000
    Zr22    Zr   0.03381   0.91866   0.86644   1.000
    Zr23    Zr   0.53380   0.91866   0.86644   1.000
    Zr24    Zr   0.09909   0.24276   0.62260   1.000
    Zr25    Zr   0.59908   0.24276   0.62260   1.000
    Zr26    Zr   0.44599   0.07972   0.34456   1.000
    Zr27    Zr   0.94598   0.07973   0.34456   1.000
    Zr28    Zr   0.02990   0.58477   0.65914   1.000
    Zr29    Zr   0.52989   0.58478   0.65914   1.000
    Zr30    Zr   0.21624   0.42489   0.63591   1.000
    Zr31    Zr   0.71622   0.42489   0.63591   1.000
    Zr32    Zr   0.34823   0.26028   0.12394   1.000
    Zr33    Zr   0.84821   0.26028   0.12394   1.000
    Zr34    Zr   0.19364   0.41972   0.84526   1.000
    Zr35    Zr   0.69363   0.41972   0.84526   1.000
    Zr36    Zr   0.28085   0.91555   0.15952   1.000
    Zr37    Zr   0.78084   0.91555   0.15952   1.000
    Zr38    Zr   0.46596   0.08115   0.13359   1.000
    Zr39    Zr   0.96595   0.08115   0.13359   1.000
    Zr40    Zr   0.40087   0.75726   0.37730   1.000
    Zr41    Zr   0.90086   0.75726   0.37736   1.000
    Zr42    Zr   0.05395   0.92022   0.65540   1.000
    Zr43    Zr   0.55395   0.92022   0.65545   1.000
    Zr44    Zr   0.47007   0.41520   0.34088   1.000
    Zr45    Zr   0.97006   0.41520   0.34088   1.000
    Zr46    Zr   0.28373   0.57511   0.36400   1.000
    Zr47    Zr   0.78372   0.57511   0.36407   1.000
    Zr48    Zr   0.16936   0.82189   0.85038   1.000
    Zr49    Zr   0.66935   0.82189   0.85038   1.000
    Zr50    Zr   0.10513   0.69789   0.85184   1.000
    Zr51    Zr   0.60512   0.69789   0.85184   1.000
    Zr52    Zr   0.31856   0.48802   0.17100   1.000
    Zr53    Zr   0.81855   0.48802   0.17100   1.000
    Zr54    Zr   0.33019   0.65638   0.20141   1.000
    Zr55    Zr   0.83018   0.65638   0.20141   1.000
    Zr56    Zr   0.17714   0.04980   0.79078   1.000
    Zr57    Zr   0.67712   0.04980   0.79078   1.000
    Zr58    Zr   0.24641   0.16093   0.82474   1.000
    Zr59    Zr   0.74640   0.16093   0.82474   1.000
    Zr60    Zr   0.07439   0.96804   0.85574   1.000
    Zr61    Zr   0.57438   0.96805   0.85574   1.000
    Zr62    Zr   0.50923   0.84045   0.82850   1.000
    Zr63    Zr   0.00000   0.84045   0.82856   1.000
    Zr64    Zr   0.08102   0.32497   0.64690   1.000
    Zr65    Zr   0.58101   0.32497   0.64696   1.000
    Zr66    Zr   0.14544   0.20103   0.64838   1.000
    Zr67    Zr   0.64543   0.20103   0.64830   1.000
    Zr68    Zr   0.43338   0.98750   0.32850   1.000
    Zr69    Zr   0.93337   0.98750   0.32850   1.000
    Zr70    Zr   0.42212   0.15597   0.29764   1.000
    Zr71    Zr   0.92212   0.15597   0.29764   1.000
    Zr72    Zr   0.07192   0.55118   0.70860   1.000
    Zr73    Zr   0.57191   0.55118   0.70860   1.000
    Zr74    Zr   0.50176   0.65938   0.67529   1.000
    Zr75    Zr   0.00000   0.65937   0.67500   1.000
    Zr76    Zr   0.17593   0.47456   0.64652   1.000
    Zr77    Zr   0.67592   0.47456   0.64652   1.000
    Zr78    Zr   0.24061   0.34677   0.67441   1.000
    Zr79    Zr   0.74060   0.34677   0.67441   1.000
    Zr80    Zr   0.33053   0.17813   0.14967   1.000
    Zr81    Zr   0.83052   0.17813   0.14967   1.000
    Zr82    Zr   0.39478   0.30209   0.14822   1.000
    Zr83    Zr   0.89477   0.30209   0.14822   1.000
    Zr84    Zr   0.18146   0.51198   0.82851   1.000
    Zr85    Zr   0.68144   0.51198   0.82851   1.000
    Zr86    Zr   0.16972   0.34365   0.79856   1.000
    Zr87    Zr   0.66970   0.34365   0.79856   1.000
    Zr88    Zr   0.32237   0.95067   0.20905   1.000
    Zr89    Zr   0.82236   0.95067   0.20905   1.000
    Zr90    Zr   0.25332   0.83908   0.17527   1.000
    Zr91    Zr   0.75331   0.83907   0.17527   1.000
    Zr92    Zr   0.42532   0.03185   0.14418   1.000
    Zr93    Zr   0.92531   0.03185   0.14418   1.000
    Zr94    Zr   0.99056   0.15930   0.17150   1.000
    Zr95    Zr   0.49055   0.15930   0.17150   1.000
    Zr96    Zr   0.41891   0.67500   0.35302   1.000
    Zr97    Zr   0.91890   0.67500   0.35302   1.000
    Zr98    Zr   0.35454   0.79909   0.35150   1.000
    Zr99    Zr   0.85453   0.79909   0.35152   1.000
    Zr100   Zr   0.06656   0.01245   0.67143   1.000
    Zr101   Zr   0.56655   0.01245   0.67143   1.000
    Zr102   Zr   0.07778   0.84402   0.70246   1.000
    Zr103   Zr   0.57777   0.84402   0.70246   1.000
    Zr104   Zr   0.42805   0.44879   0.29140   1.000
    Zr105   Zr   0.92804   0.44879   0.29142   1.000
    Zr106   Zr   0.99818   0.34057   0.32473   1.000
    Zr107   Zr   0.49818   0.34056   0.32473   1.000
    Zr108   Zr   0.32402   0.52541   0.35346   1.000
    Zr109   Zr   0.82401   0.52541   0.35346   1.000
    Zr110   Zr   0.25939   0.65327   0.32561   1.000
    Zr111   Zr   0.75938   0.65327   0.32561   1.000
    O112    O    0.87149   0.28119   0.13608   1.000
    O113    O    0.83937   0.21921   0.13680   1.000
    O114    O    0.37150   0.28119   0.13608   1.000
    O115    O    0.33938   0.21921   0.13680   1.000
    O116    O    0.94563   0.05650   0.13888   1.000
    O117    O    0.97826   0.12023   0.15255   1.000
    O118    O    0.44564   0.05650   0.13888   1.000
    O119    O    0.47826   0.12023   0.15255   1.000
    O120    O    0.40034   0.04703   0.17677   1.000
    O121    O    0.90034   0.04703   0.17677   1.000
    O122    O    0.92605   0.27945   0.19094   1.000
    O123    O    0.42606   0.27945   0.19094   1.000
    O124    O    0.85294   0.12017   0.17951   1.000
    O125    O    0.35295   0.12017   0.17951   1.000
    O126    O    0.31243   0.53414   0.16287   1.000
    O127    O    0.31825   0.61832   0.17807   1.000
    O128    O    0.81242   0.53414   0.16287   1.000
    O129    O    0.81824   0.61832   0.17807   1.000
    O130    O    0.76708   0.87731   0.16740   1.000
    O131    O    0.80160   0.93311   0.18429   1.000
    O132    O    0.26708   0.87731   0.16740   1.000
    O133    O    0.30161   0.93311   0.18429   1.000
    O134    O    0.97394   0.20805   0.20258   1.000
    O135    O    0.47394   0.20805   0.20258   1.000
    O136    O    0.27333   0.79560   0.22022   1.000
    O137    O    0.77333   0.79560   0.22022   1.000
    O138    O    0.81176   0.70425   0.23329   1.000
    O139    O    0.31177   0.70425   0.23329   1.000
    O140    O    0.34887   0.00644   0.20921   1.000
    O141    O    0.84886   0.00644   0.20921   1.000
    O142    O    0.43973   0.20639   0.26565   1.000
    O143    O    0.47775   0.29868   0.27919   1.000
    O144    O    0.93972   0.20639   0.26565   1.000
    O145    O    0.97775   0.29869   0.27919   1.000
    O146    O    0.27637   0.70270   0.29539   1.000
    O147    O    0.32394   0.77561   0.30834   1.000
    O148    O    0.77636   0.70270   0.29539   1.000
    O149    O    0.82394   0.77561   0.30834   1.000
    O150    O    0.40167   0.50439   0.29107   1.000
    O151    O    0.39710   0.61749   0.32188   1.000
    O152    O    0.34965   0.54269   0.32210   1.000
    O153    O    0.90165   0.50438   0.29108   1.000
    O154    O    0.89709   0.61749   0.32188   1.000
    O155    O    0.84964   0.54269   0.32210   1.000
    O156    O    0.44906   0.43200   0.31614   1.000
    O157    O    0.94905   0.43200   0.31615   1.000
    O158    O    0.43406   0.11785   0.32110   1.000
    O159    O    0.93405   0.11785   0.32110   1.000
    O160    O    0.98412   0.37788   0.33281   1.000
    O161    O    0.48413   0.37788   0.33281   1.000
    O162    O    0.27156   0.61419   0.34481   1.000
    O163    O    0.77155   0.61419   0.34484   1.000
    O164    O    0.43969   0.03361   0.33653   1.000
    O165    O    0.93968   0.03361   0.33653   1.000
    O166    O    0.37770   0.77818   0.36440   1.000
    O167    O    0.87769   0.77818   0.36444   1.000
    O168    O    0.40989   0.71613   0.36516   1.000
    O169    O    0.90988   0.71613   0.36519   1.000
    O170    O    0.30388   0.55026   0.35873   1.000
    O171    O    0.80387   0.55026   0.35877   1.000
    O172    O    0.09005   0.28387   0.63475   1.000
    O173    O    0.12227   0.22189   0.63549   1.000
    O174    O    0.59004   0.28387   0.63478   1.000
    O175    O    0.62226   0.22189   0.63545   1.000
    O176    O    0.19608   0.44972   0.64122   1.000
    O177    O    0.22842   0.38583   0.65516   1.000
    O178    O    0.69607   0.44972   0.64122   1.000
    O179    O    0.72841   0.38583   0.65516   1.000
    O180    O    0.65029   0.45728   0.67789   1.000
    O181    O    0.15030   0.45727   0.67789   1.000
    O182    O    0.10284   0.38248   0.67808   1.000
    O183    O    0.60283   0.38248   0.67810   1.000
    O184    O    0.67602   0.22449   0.69154   1.000
    O185    O    0.17603   0.22449   0.69157   1.000
    O186    O    0.06026   0.96634   0.66342   1.000
    O187    O    0.06587   0.88212   0.67893   1.000
    O188    O    0.56025   0.96634   0.66344   1.000
    O189    O    0.56586   0.88212   0.67896   1.000
    O190    O    0.51582   0.62208   0.66722   1.000
    O191    O    0.55090   0.56798   0.68387   1.000
    O192    O    0.01495   0.62207   0.66707   1.000
    O193    O    0.05091   0.56798   0.68387   1.000
    O194    O    0.22361   0.29736   0.70459   1.000
    O195    O    0.72360   0.29736   0.70459   1.000
    O196    O    0.02129   0.70126   0.72071   1.000
    O197    O    0.52216   0.70126   0.72085   1.000
    O198    O    0.06018   0.79358   0.73444   1.000
    O199    O    0.56017   0.79359   0.73444   1.000
    O200    O    0.09829   0.49559   0.70893   1.000
    O201    O    0.59828   0.49558   0.70893   1.000
    O202    O    0.18816   0.29580   0.76667   1.000
    O203    O    0.22651   0.20444   0.77976   1.000
    O204    O    0.68815   0.29580   0.76667   1.000
    O205    O    0.72650   0.20444   0.77976   1.000
    O206    O    0.02129   0.79180   0.79749   1.000
    O207    O    0.07385   0.72052   0.80912   1.000
    O208    O    0.52590   0.79180   0.79746   1.000
    O209    O    0.57384   0.72052   0.80912   1.000
    O210    O    0.65080   0.99379   0.79076   1.000
    O211    O    0.64691   0.87983   0.82056   1.000
    O212    O    0.59943   0.95291   0.82324   1.000
    O213    O    0.15081   0.99378   0.79076   1.000
    O214    O    0.14692   0.87983   0.82056   1.000
    O215    O    0.09944   0.95291   0.82324   1.000
    O216    O    0.19788   0.06730   0.81560   1.000
    O217    O    0.69787   0.06730   0.81560   1.000
    O218    O    0.18168   0.38168   0.82191   1.000
    O219    O    0.68167   0.38168   0.82191   1.000
    O220    O    0.23252   0.12286   0.83258   1.000
    O221    O    0.73251   0.12286   0.83258   1.000
    O222    O    0.52151   0.87955   0.84747   1.000
    O223    O    0.68754   0.46585   0.83688   1.000
    O224    O    0.18755   0.46585   0.83688   1.000
    O225    O    0.01690   0.87956   0.84750   1.000
    O226    O    0.16053   0.78079   0.86324   1.000
    O227    O    0.66052   0.78079   0.86324   1.000
    O228    O    0.62840   0.71879   0.86397   1.000
    O229    O    0.12841   0.71879   0.86397   1.000
    O230    O    0.55409   0.94335   0.86109   1.000
    O231    O    0.05410   0.94335   0.86109   1.000
    O232    O    0.35274   0.60818   0.24607   1.000
    O233    O    0.85273   0.60818   0.24607   1.000
    O234    O    0.39875   0.10909   0.25350   1.000
    O235    O    0.89874   0.10909   0.25350   1.000
    O236    O    0.14719   0.39182   0.75391   1.000
    O237    O    0.64718   0.39182   0.75391   1.000
    O238    O    0.10113   0.89089   0.74660   1.000
    O239    O    0.60112   0.89089   0.74660   1.000
    N240    N    0.72807   0.65082   0.01363   1.000
    O241    O    0.69956   0.68270   0.96216   1.000
    O242    O    0.75694   0.62378   0.06583   1.000
    N243    N    0.74955   0.00008   0.99999   1.000
    O244    O    0.76093   0.96894   0.05923   1.000
    O245    O    0.73829   0.03132   0.94072   1.000
    N246    N    0.77186   0.34911   0.98636   1.000
    O247    O    0.74299   0.37616   0.93416   1.000
    O248    O    0.80036   0.31724   0.03784   1.000
    N249    N    0.49991   0.99993   0.00001   1.000
    O250    O    0.48772   0.03051   0.04980   1.000
    O251    O    0.51208   0.96933   0.95021   1.000
    N252    N    0.99991   0.99993   0.00001   1.000
    O253    O    0.98772   0.03051   0.04982   1.000
    O254    O    0.01208   0.96933   0.95021   1.000
    N255    N    0.27187   0.34911   0.98636   1.000
    O256    O    0.24300   0.37616   0.93416   1.000
    O257    O    0.30037   0.31724   0.03784   1.000
    N258    N    0.97603   0.84797   0.51450   1.000
    O259    O    0.94796   0.81531   0.46322   1.000
    O260    O    0.00475   0.87573   0.56667   1.000
    N261    N    0.22808   0.65082   0.01363   1.000
    O262    O    0.25695   0.62378   0.06583   1.000
    O263    O    0.19957   0.68270   0.96216   1.000
    N264    N    0.02393   0.15198   0.48548   1.000
    O265    O    0.99521   0.12421   0.43332   1.000
    O266    O    0.05200   0.18467   0.53676   1.000
    N267    N    0.47603   0.84797   0.51451   1.000
    O268    O    0.44797   0.81531   0.46321   1.000
    O269    O    0.50474   0.87573   0.56668   1.000
    N270    N    0.24956   0.00008   0.99999   1.000
    O271    O    0.23830   0.03132   0.94072   1.000
    O272    O    0.26094   0.96894   0.05923   1.000
    N273    N    0.49999   0.49999   0.49999   1.000
    O274    O    0.51081   0.53136   0.55908   1.000
    O275    O    0.48916   0.46863   0.44091   1.000
    N276    N    0.99999   0.49999   0.50000   1.000
    O277    O    0.98915   0.46863   0.44091   1.000
    O278    O    0.01082   0.53136   0.55910   1.000
    N279    N    0.52393   0.15198   0.48548   1.000
    O280    O    0.55199   0.18467   0.53676   1.000
    O281    O    0.49521   0.12421   0.43332   1.000
    N282    N    0.74996   0.49999   0.49995   1.000
    O283    O    0.76208   0.52799   0.44920   1.000
    O284    O    0.73785   0.47200   0.55074   1.000
    N285    N    0.24997   0.49999   0.49995   1.000
    O286    O    0.26209   0.52799   0.44918   1.000
    O287    O    0.23786   0.47200   0.55074   1.000
loop_
    _geom_bond_atom_site_label_1
    _geom_bond_atom_site_label_2
    _geom_bond_distance
    _geom_bond_site_symmetry_2
    _ccdc_geom_bond_type
    Zr33   O112      0.63532      .   S
    Zr83   O112      0.63532      .   S
    Zr33   O113      0.63530      .   S
    Zr81   O113      0.63530      .   S
    Zr32   O114      0.63531      .   S
    Zr82   O114      0.63531      .   S
    Zr32   O115      0.63531      .   S
    Zr80   O115      0.63531      .   S
    Zr39   O116      0.63442      .   S
    Zr93   O116      0.63442      .   S
    Zr39   O117      0.63665      .   S
    Zr94   O117      0.63665      .   S
    Zr38   O118      0.63441      .   S
    Zr92   O118      0.63441      .   S
    Zr38   O119      0.63660      .   S
    Zr95   O119      0.63660      .   S
    Zr92   O120      0.98799      .   S
    Zr10   O120      0.98799      .   S
    Zr93   O121      0.98798      .   S
    Zr11   O121      0.98798      .   S
    Zr83   O122      0.98722      .   S
    Zr9    O122      0.98722      .   S
    Zr82   O123      0.98721      .   S
    Zr8    O123      0.98721      .   S
    Zr81   O124      0.99727      .   S
    Zr11   O124      0.99727      .   S
    Zr80   O125      0.99726      .   S
    Zr10   O125      0.99726      .   S
    Zr18   O126      0.61644      .   S
    Zr52   O126      0.61644      .   S
    Zr18   O127      0.65915      .   S
    Zr54   O127      0.65915      .   S
    Zr19   O128      0.61643      .   S
    Zr53   O128      0.61643      .   S
    Zr19   O129      0.65914      .   S
    Zr55   O129      0.65914      .   S
    Zr37   O130      0.63722      .   S
    Zr91   O130      0.63722      .   S
    Zr37   O131      0.63354      .   S
    Zr89   O131      0.63354      .   S
    Zr36   O132      0.63723      .   S
    Zr90   O132      0.63723      .   S
    Zr36   O133      0.63355      .   S
    Zr88   O133      0.63355      .   S
    Zr94   O134      1.00025      .   S
    Zr9    O134      1.00025      .   S
    Zr95   O135      1.00014      .   S
    Zr8    O135      1.00014      .   S
    Zr90   O136      0.99293      .   S
    Zr12   O136      0.99293      .   S
    Zr91   O137      0.99293      .   S
    Zr13   O137      0.99293      .   S
    Zr55   O138      1.03005      .   S
    Zr13   O138      1.03005      .   S
    Zr54   O139      1.03007      .   S
    Zr12   O139      1.03007      .   S
    Zr88   O140      0.98097  1_565   S
    Zr10   O140      0.98097      .   S
    Zr89   O141      0.98098  1_565   S
    Zr11   O141      0.98098      .   S
    Zr8    O142      1.03344      .   S
    Zr70   O142      1.03344      .   S
    Zr8    O143      0.99440      .   S
    Zr107  O143      0.99440      .   S
    Zr9    O144      1.03343      .   S
    Zr71   O144      1.03343      .   S
    Zr9    O145      0.99446      .   S
    Zr106  O145      0.99446      .   S
    Zr12   O146      0.99581      .   S
    Zr110  O146      0.99581      .   S
    Zr12   O147      0.98514      .   S
    Zr98   O147      0.98514      .   S
    Zr13   O148      0.99583      .   S
    Zr111  O148      0.99583      .   S
    Zr13   O149      0.98523      .   S
    Zr99   O149      0.98523      .   S
    Zr14   O150      0.97992      .   S
    Zr104  O150      0.97992      .   S
    Zr14   O151      0.99654      .   S
    Zr96   O151      0.99654      .   S
    Zr14   O152      0.98891      .   S
    Zr108  O152      0.98891      .   S
    Zr15   O153      0.97990      .   S
    Zr105  O153      0.97990      .   S
    Zr15   O154      0.99654      .   S
    Zr97   O154      0.99654      .   S
    Zr15   O155      0.98892      .   S
    Zr109  O155      0.98892      .   S
    Zr104  O156      0.63398      .   S
    Zr44   O156      0.63398      .   S
    Zr105  O157      0.63391      .   S
    Zr45   O157      0.63391      .   S
    Zr70   O158      0.65931      .   S
    Zr26   O158      0.65931      .   S
    Zr71   O159      0.65930      .   S
    Zr27   O159      0.65930      .   S
    Zr106  O160      0.63716      .   S
    Zr45   O160      0.63716      .   S
    Zr107  O161      0.63708      .   S
    Zr44   O161      0.63708      .   S
    Zr110  O162      0.63634      .   S
    Zr46   O162      0.63634      .   S
    Zr111  O163      0.63659      .   S
    Zr47   O163      0.63659      .   S
    Zr68   O164      0.61725  1_565   S
    Zr26   O164      0.61725      .   S
    Zr69   O165      0.61726  1_565   S
    Zr27   O165      0.61726      .   S
    Zr98   O166      0.63504      .   S
    Zr40   O166      0.63504      .   S
    Zr99   O167      0.63508      .   S
    Zr41   O167      0.63508      .   S
    Zr96   O168      0.63528      .   S
    Zr40   O168      0.63528      .   S
    Zr97   O169      0.63550      .   S
    Zr41   O169      0.63550      .   S
    Zr108  O170      0.63383      .   S
    Zr46   O170      0.63383      .   S
    Zr109  O171      0.63406      .   S
    Zr47   O171      0.63406      .   S
    Zr24   O172      0.63527      .   S
    Zr64   O172      0.63527      .   S
    Zr24   O173      0.63506      .   S
    Zr66   O173      0.63506      .   S
    Zr25   O174      0.63551      .   S
    Zr65   O174      0.63551      .   S
    Zr25   O175      0.63497      .   S
    Zr67   O175      0.63497      .   S
    Zr30   O176      0.63406      .   S
    Zr76   O176      0.63406      .   S
    Zr30   O177      0.63666      .   S
    Zr78   O177      0.63666      .   S
    Zr31   O178      0.63406      .   S
    Zr77   O178      0.63406      .   S
    Zr31   O179      0.63665      .   S
    Zr79   O179      0.63665      .   S
    Zr77   O180      0.98894      .   S
    Zr7    O180      0.98894      .   S
    Zr76   O181      0.98895      .   S
    Zr6    O181      0.98895      .   S
    Zr64   O182      0.99688      .   S
    Zr6    O182      0.99688      .   S
    Zr65   O183      0.99667      .   S
    Zr7    O183      0.99667      .   S
    Zr67   O184      0.98561      .   S
    Zr5    O184      0.98561      .   S
    Zr66   O185      0.98520      .   S
    Zr4    O185      0.98520      .   S
    Zr42   O186      0.61726      .   S
    Zr100  O186      0.61726  1_545   S
    Zr42   O187      0.65957      .   S
    Zr102  O187      0.65957      .   S
    Zr43   O188      0.61718      .   S
    Zr101  O188      0.61718  1_545   S
    Zr43   O189      0.65935      .   S
    Zr103  O189      0.65935      .   S
    Zr29   O190      0.63704      .   S
    Zr74   O190      0.63704      .   S
    Zr29   O191      0.63389      .   S
    Zr73   O191      0.63389      .   S
    Zr28   O192      0.65047      .   S
    Zr75   O192      0.65047      .   S
    Zr28   O193      0.63390      .   S
    Zr72   O193      0.63390      .   S
    Zr78   O194      0.99546      .   S
    Zr4    O194      0.99546      .   S
    Zr79   O195      0.99544      .   S
    Zr5    O195      0.99544      .   S
    Zr75   O196      1.00341      .   S
    Zr0    O196      1.00341      .   S
    Zr74   O197      0.99449      .   S
    Zr1    O197      0.99449      .   S
    Zr102  O198      1.03338      .   S
    Zr0    O198      1.03338      .   S
    Zr103  O199      1.03339      .   S
    Zr1    O199      1.03339      .   S
    Zr72   O200      0.97985      .   S
    Zr6    O200      0.97985      .   S
    Zr73   O201      0.97985      .   S
    Zr7    O201      0.97985      .   S
    Zr4    O202      1.03040      .   S
    Zr86   O202      1.03040      .   S
    Zr4    O203      0.99274      .   S
    Zr58   O203      0.99274      .   S
    Zr5    O204      1.03041      .   S
    Zr87   O204      1.03041      .   S
    Zr5    O205      0.99274      .   S
    Zr59   O205      0.99274      .   S
    Zr0    O206      1.07230      .   S
    Zr63   O206      1.07230      .   S
    Zr0    O207      0.98729      .   S
    Zr50   O207      0.98729      .   S
    Zr1    O208      0.99972      .   S
    Zr62   O208      0.99972      .   S
    Zr1    O209      0.98728      .   S
    Zr51   O209      0.98728      .   S
    Zr3    O210      0.98057      .   S
    Zr57   O210      0.98057  1_545   S
    Zr3    O211      0.99710      .   S
    Zr49   O211      0.99710      .   S
    Zr3    O212      0.98828      .   S
    Zr61   O212      0.98828      .   S
    Zr2    O213      0.98059      .   S
    Zr56   O213      0.98059  1_545   S
    Zr2    O214      0.99710      .   S
    Zr48   O214      0.99710      .   S
    Zr2    O215      0.98827      .   S
    Zr60   O215      0.98827      .   S
    Zr56   O216      0.63352      .   S
    Zr20   O216      0.63352      .   S
    Zr57   O217      0.63352      .   S
    Zr21   O217      0.63352      .   S
    Zr86   O218      0.65922      .   S
    Zr34   O218      0.65922      .   S
    Zr87   O219      0.65922      .   S
    Zr35   O219      0.65922      .   S
    Zr58   O220      0.63724      .   S
    Zr20   O220      0.63724      .   S
    Zr59   O221      0.63725      .   S
    Zr21   O221      0.63725      .   S
    Zr62   O222      0.63690      .   S
    Zr23   O222      0.63690      .   S
    Zr85   O223      0.61714      .   S
    Zr35   O223      0.61714      .   S
    Zr84   O224      0.61713      .   S
    Zr34   O224      0.61713      .   S
    Zr63   O225      0.68711      .   S
    Zr22   O225      0.68711      .   S
    Zr48   O226      0.63534      .   S
    Zr16   O226      0.63534      .   S
    Zr49   O227      0.63534      .   S
    Zr17   O227      0.63534      .   S
    Zr51   O228      0.63530      .   S
    Zr17   O228      0.63530      .   S
    Zr50   O229      0.63530      .   S
    Zr16   O229      0.63530      .   S
    Zr61   O230      0.63438      .   S
    Zr23   O230      0.63438      .   S
    Zr60   O231      0.63439      .   S
    Zr22   O231      0.63439      .   S
    Zr54   O232      1.04553      .   S
    Zr14   O232      1.04553      .   S
    Zr55   O233      1.04553      .   S
    Zr15   O233      1.04553      .   S
    Zr70   O234      1.04009      .   S
    Zr10   O234      1.04009      .   S
    Zr71   O235      1.04010      .   S
    Zr11   O235      1.04010      .   S
    Zr86   O236      1.04508      .   S
    Zr6    O236      1.04508      .   S
    Zr87   O237      1.04508      .   S
    Zr7    O237      1.04508      .   S
    Zr102  O238      1.03976      .   S
    Zr2    O238      1.03976      .   S
    Zr103  O239      1.03976      .   S
    Zr3    O239      1.03976      .   S
    N240   O241      1.08387  1_554   S
    Zr17   O241      1.83294      .   S
    N240   O242      1.07526      .   S
    Zr19   O242      1.82362      .   S
    N243   O244      1.08586  1_546   S
    Zr37   O244      1.84165      .   S
    N243   O245      1.08667      .   S
    Zr21   O245      1.84206      .   S
    N246   O247      1.07535      .   S
    Zr35   O247      1.82370      .   S
    N246   O248      1.08382  1_556   S
    Zr33   O248      1.83285      .   S
    N249   O250      1.08524  1_565   S
    Zr38   O250      1.83867      .   S
    N249   O251      1.08508  1_554   S
    Zr23   O251      1.83798      .   S
    N252   O253      1.08550  1_565   S
    Zr39   O253      1.83838      .   S
    N252   O254      1.08518  1_654   S
    Zr22   O254      1.83809      .   S
    N255   O256      1.07534      .   S
    Zr34   O256      1.82370      .   S
    N255   O257      1.08382  1_556   S
    Zr32   O257      1.83286      .   S
    N258   O259      1.08204      .   S
    Zr41   O259      1.82985      .   S
    N258   O260      1.07736  1_655   S
    Zr42   O260      1.82570      .   S
    N261   O262      1.07526      .   S
    Zr18   O262      1.82362      .   S
    N261   O263      1.08387  1_554   S
    Zr16   O263      1.83294      .   S
    N264   O265      1.07755  1_455   S
    Zr27   O265      1.82622      .   S
    N264   O266      1.08200      .   S
    Zr24   O266      1.82977      .   S
    N267   O268      1.08221      .   S
    Zr40   O268      1.83035      .   S
    N267   O269      1.07745      .   S
    Zr43   O269      1.82609      .   S
    N270   O271      1.08666      .   S
    Zr20   O271      1.84205      .   S
    N270   O272      1.08587  1_546   S
    Zr36   O272      1.84166      .   S
    N273   O274      1.08748      .   S
    Zr29   O274      1.84303      .   S
    N273   O275      1.08740      .   S
    Zr44   O275      1.84260      .   S
    N276   O277      1.08747      .   S
    Zr45   O277      1.84266      .   S
    N276   O278      1.08755  1_655   S
    Zr28   O278      1.84278      .   S
    N279   O280      1.08197      .   S
    Zr25   O280      1.82972      .   S
    N279   O281      1.07751      .   S
    Zr26   O281      1.82617      .   S
    N282   O283      1.08445      .   S
    Zr47   O283      1.83673      .   S
    N282   O284      1.08492      .   S
    Zr31   O284      1.83713      .   S
    N285   O286      1.08470      .   S
    Zr46   O286      1.83753      .   S
    N285   O287      1.08495      .   S
    Zr30   O287      1.83716      .   S
