# CIF file generated by openbabel 2.4.90, see http://openbabel.sf.net
data_I
_chemical_name_common ''
_cell_length_a 10.563
_cell_length_b 11.365
_cell_length_c 16.816
_cell_angle_alpha 98.438
_cell_angle_beta 95.506
_cell_angle_gamma 101.269
_space_group_name_H-M_alt 'P 1'
_space_group_name_Hall 'P 1'
loop_
    _symmetry_equiv_pos_as_xyz
    x,y,z
loop_
    _atom_site_label
    _atom_site_type_symbol
    _atom_site_fract_x
    _atom_site_fract_y
    _atom_site_fract_z
    _atom_site_occupancy
    F0      F    0.89494   0.56308   0.98967   1.000
    F1      F    0.43304   0.57042   0.97216   1.000
    F2      F    0.40000   0.06021   0.99315   1.000
    F3      F    0.59993   0.91432   0.00695   1.000
    F4      F    0.06660   0.90487   0.02776   1.000
