# CIF file generated by openbabel 2.4.90, see http://openbabel.sf.net
data_I
_chemical_name_common ''
_cell_length_a 10.563
_cell_length_b 11.365
_cell_length_c 16.816
_cell_angle_alpha 98.438
_cell_angle_beta 95.506
_cell_angle_gamma 101.269
_space_group_name_H-M_alt 'P 1'
_space_group_name_Hall 'P 1'
loop_
    _symmetry_equiv_pos_as_xyz
    x,y,z
loop_
    _atom_site_label
    _atom_site_type_symbol
    _atom_site_fract_x
    _atom_site_fract_y
    _atom_site_fract_z
    _atom_site_occupancy
    N0      N    0.75907   0.22685   0.74867   1.000
    N1      N    0.73828   0.24877   0.24849   1.000
    N2      N    0.76210   0.75047   0.74621   1.000
    N3      N    0.24479   0.74678   0.75061   1.000
    N4      N    0.26216   0.23166   0.74476   1.000
    N5      N    0.23586   0.24456   0.25233   1.000
    N6      N    0.73438   0.72581   0.25177   1.000
    N7      N    0.25180   0.72749   0.24750   1.000
    Zr8     Zr   0.50142   0.72818   0.50304   1.000
    O9      O    0.58161   0.73457   0.57462   1.000
    O10     O    0.58159   0.71704   0.43047   1.000
    O11     O    0.42962   0.72481   0.42402   1.000
    Zr12    Zr   0.14601   0.46777   0.50010   1.000
    O13     O    0.19138   0.56207   0.57282   1.000
    O14     O    0.18924   0.41084   0.42381   1.000
    O15     O    0.18563   0.56143   0.42626   1.000
    Zr16    Zr   0.46258   0.23978   0.01387   1.000
    O17     O    0.54706   0.24008   0.08306   1.000
    O18     O    0.40464   0.23776   0.93289   1.000
    O19     O    0.39025   0.24778   0.08101   1.000
    Zr20    Zr   0.65860   0.42733   0.01785   1.000
    O21     O    0.70962   0.37394   0.08246   1.000
    O22     O    0.70374   0.37239   0.93697   1.000
    O23     O    0.69990   0.52338   0.08761   1.000
    Zr24    Zr   0.99461   0.74953   0.49553   1.000
    O25     O    0.91435   0.76037   0.56800   1.000
    O26     O    0.06636   0.75151   0.57440   1.000
    O27     O    0.91436   0.74334   0.42393   1.000
    Zr28    Zr   0.35038   0.00726   0.49714   1.000
    O29     O    0.31096   0.91319   0.57133   1.000
    O30     O    0.30813   0.06453   0.57363   1.000
    O31     O    0.30536   0.91261   0.42482   1.000
    Zr32    Zr   0.24779   0.52059   0.97503   1.000
    O33     O    0.23926   0.59218   0.91245   1.000
    O34     O    0.25174   0.43246   0.90658   1.000
    O35     O    0.25257   0.58321   0.05687   1.000
    Zr36    Zr   0.96304   0.74046   0.01736   1.000
    O37     O    0.90537   0.74418   0.93595   1.000
    O38     O    0.88979   0.74296   0.08340   1.000
    O39     O    0.05068   0.73393   0.08504   1.000
    Zr40    Zr   0.53413   0.73537   0.98075   1.000
    O41     O    0.60715   0.73297   0.91461   1.000
    O42     O    0.44634   0.74128   0.91300   1.000
    O43     O    0.59169   0.73209   0.06219   1.000
    Zr44    Zr   0.83592   0.00820   0.49781   1.000
    O45     O    0.80779   0.91506   0.56983   1.000
    O46     O    0.79724   0.06475   0.57579   1.000
    O47     O    0.78642   0.91438   0.42648   1.000
    Zr48    Zr   0.02243   0.23996   0.99430   1.000
    O49     O    0.10136   0.22996   0.92371   1.000
    O50     O    0.94432   0.23740   0.92165   1.000
    O51     O    0.08694   0.23987   0.07180   1.000
    Zr52    Zr   0.65857   0.46758   0.49890   1.000
    O53     O    0.69802   0.41108   0.42112   1.000
    O54     O    0.70818   0.56169   0.57063   1.000
    O55     O    0.68732   0.56114   0.42744   1.000
    Zr56    Zr   0.99921   0.23615   0.49939   1.000
    O57     O    0.91881   0.24029   0.42475   1.000
    O58     O    0.08007   0.23416   0.57250   1.000
    O59     O    0.92202   0.23879   0.57032   1.000
    O60     O    0.07521   0.23321   0.42909   1.000
    Zr61    Zr   0.49779   0.23923   0.49747   1.000
    O62     O    0.57505   0.23663   0.42667   1.000
    O63     O    0.42194   0.24235   0.56775   1.000
    O64     O    0.57824   0.23531   0.57223   1.000
    O65     O    0.41718   0.24126   0.42437   1.000
    Zr66    Zr   0.74622   0.02481   0.97872   1.000
    O67     O    0.75069   0.94059   0.90942   1.000
    O68     O    0.74756   0.09146   0.05987   1.000
    O69     O    0.74159   0.08991   0.91440   1.000
    Zr70    Zr   0.25146   0.95484   0.02366   1.000
    O71     O    0.24589   0.89191   0.94166   1.000
    O72     O    0.24734   0.04332   0.09164   1.000
    O73     O    0.25913   0.88295   0.08614   1.000
loop_
    _geom_bond_atom_site_label_1
    _geom_bond_atom_site_label_2
    _geom_bond_distance
    _geom_bond_site_symmetry_2
    _ccdc_geom_bond_type
    Zr8    O9        1.38805      .   S
    N2     O9        3.26339      .   S
    Zr8    O10       1.55466      .   S
    N6     O10       3.54975      .   S
    Zr8    O11       1.45685      .   S
    N7     O11       3.36436      .   S
    Zr12   O13       1.47509      .   S
    N3     O13       3.32193      .   S
    Zr12   O14       1.50242      .   S
    N5     O14       3.34159      .   S
    Zr12   O15       1.77869      .   S
    N7     O15       3.82600      .   S
    Zr16   O17       1.39584      .   S
    N1     O17       3.25439      .   S
    Zr16   O18       1.43356  1_554   S
    N4     O18       3.35541      .   S
    Zr16   O19       1.42446      .   S
    N5     O19       3.44517      .   S
    Zr20   O21       1.43117      .   S
    N1     O21       3.32886      .   S
    Zr20   O22       1.56796  1_554   S
    N0     O22       3.50704      .   S
    Zr20   O23       1.44845      .   S
    N6     O23       3.26523      .   S
    Zr24   O25       1.55365      .   S
    N2     O25       3.54029      .   S
    Zr24   O26       1.45793  1_655   S
    N3     O26       3.36903      .   S
    Zr24   O27       1.38904      .   S
    N6     O27       3.26514      .   S
    Zr28   O29       1.78619  1_545   S
    N3     O29       3.83605      .   S
    Zr28   O30       1.50183      .   S
    N4     O30       3.33911      .   S
    Zr28   O31       1.47223  1_545   S
    N7     O31       3.31772      .   S
    Zr32   O33       1.42808      .   S
    N3     O33       3.44820      .   S
    Zr32   O34       1.42020      .   S
    N4     O34       3.31027      .   S
    Zr32   O35       1.44507  1_556   S
    N7     O35       3.38117      .   S
    Zr36   O37       1.45409  1_554   S
    N2     O37       3.41438      .   S
    Zr36   O38       1.41312      .   S
    N6     O38       3.41731      .   S
    Zr36   O39       1.41677  1_655   S
    N7     O39       3.31472      .   S
    Zr40   O41       1.41296      .   S
    N2     O41       3.41542      .   S
    Zr40   O42       1.41641      .   S
    N3     O42       3.31359      .   S
    Zr40   O43       1.45277  1_556   S
    N6     O43       3.40990      .   S
    Zr44   O45       1.73138  1_545   S
    N2     O45       3.75226      .   S
    Zr44   O46       1.50247      .   S
    N0     O46       3.30939      .   S
    Zr44   O47       1.46140  1_545   S
    N6     O47       3.30269      .   S
    Zr48   O49       1.51809      .   S
    N4     O49       3.59526      .   S
    Zr48   O50       1.40037  1_455   S
    N0     O50       3.31933      .   S
    Zr48   O51       1.41173  1_556   S
    N5     O51       3.27050      .   S
    Zr52   O53       1.50309      .   S
    N1     O53       3.31408      .   S
    Zr52   O54       1.46785      .   S
    N2     O54       3.31453      .   S
    Zr52   O55       1.72800      .   S
    N6     O55       3.74382      .   S
    Zr56   O57       1.45851      .   S
    N1     O57       3.39157      .   S
    Zr56   O58       1.43378  1_655   S
    N4     O58       3.32682      .   S
    Zr56   O59       1.50790      .   S
    N0     O59       3.60496      .   S
    Zr56   O60       1.49139  1_655   S
    N5     O60       3.56745      .   S
    Zr61   O62       1.50658      .   S
    N1     O62       3.60415      .   S
    Zr61   O63       1.49021      .   S
    N4     O63       3.56554      .   S
    Zr61   O64       1.45971      .   S
    N0     O64       3.39551      .   S
    Zr61   O65       1.43227      .   S
    N5     O65       3.32217      .   S
    Zr66   O67       1.40607  1_545   S
    N2     O67       3.26194      .   S
    Zr66   O68       1.45784  1_556   S
    N1     O68       3.42487      .   S
    Zr66   O69       1.39946      .   S
    N0     O69       3.38850      .   S
    Zr70   O71       1.44733  1_554   S
    N3     O71       3.38706      .   S
    Zr70   O72       1.41739  1_565   S
    N5     O72       3.30225      .   S
    Zr70   O73       1.42818      .   S
    N7     O73       3.44733      .   S
