# CIF file generated by openbabel 2.4.90, see http://openbabel.sf.net
data_I
_chemical_name_common ''
_cell_length_a 10.563
_cell_length_b 11.365
_cell_length_c 16.816
_cell_angle_alpha 98.438
_cell_angle_beta 95.506
_cell_angle_gamma 101.269
_space_group_name_H-M_alt 'P 1'
_space_group_name_Hall 'P 1'
loop_
    _symmetry_equiv_pos_as_xyz
    x,y,z
loop_
    _atom_site_label
    _atom_site_type_symbol
    _atom_site_fract_x
    _atom_site_fract_y
    _atom_site_fract_z
    _atom_site_occupancy
    N0      N    0.75907   0.22685   0.74867   1.000
    N1      N    0.73828   0.24877   0.24849   1.000
    N2      N    0.76210   0.75047   0.74621   1.000
    N3      N    0.24479   0.74678   0.75061   1.000
    N4      N    0.26216   0.23166   0.74476   1.000
    N5      N    0.23586   0.24456   0.25233   1.000
    N6      N    0.73438   0.72581   0.25177   1.000
    N7      N    0.25180   0.72749   0.24750   1.000
    N8      N    0.89494   0.56308   0.98967   1.000
    N9      N    0.43304   0.57042   0.97216   1.000
    N10     N    0.40000   0.06021   0.99315   1.000
    N11     N    0.59993   0.91432   0.00695   1.000
    N12     N    0.06660   0.90487   0.02776   1.000
    Zr13    Zr   0.50142   0.72818   0.50304   1.000
    O14     O    0.58161   0.73457   0.57462   1.000
    O15     O    0.58159   0.71704   0.43047   1.000
    O16     O    0.42962   0.72481   0.42402   1.000
    Zr17    Zr   0.14601   0.46777   0.50010   1.000
    O18     O    0.19138   0.56207   0.57282   1.000
    O19     O    0.18924   0.41084   0.42381   1.000
    O20     O    0.18563   0.56143   0.42626   1.000
    Zr21    Zr   0.46258   0.23978   0.01387   1.000
    O22     O    0.54706   0.24008   0.08306   1.000
    O23     O    0.40464   0.23776   0.93289   1.000
    O24     O    0.39025   0.24778   0.08101   1.000
    Zr25    Zr   0.65860   0.42733   0.01785   1.000
    O26     O    0.70962   0.37394   0.08246   1.000
    O27     O    0.70374   0.37239   0.93697   1.000
    O28     O    0.69990   0.52338   0.08761   1.000
    Zr29    Zr   0.99461   0.74953   0.49553   1.000
    O30     O    0.91435   0.76037   0.56800   1.000
    O31     O    0.06636   0.75151   0.57440   1.000
    O32     O    0.91436   0.74334   0.42393   1.000
    Zr33    Zr   0.35038   0.00726   0.49714   1.000
    O34     O    0.31096   0.91319   0.57133   1.000
    O35     O    0.30813   0.06453   0.57363   1.000
    O36     O    0.30536   0.91261   0.42482   1.000
    Zr37    Zr   0.24779   0.52059   0.97503   1.000
    O38     O    0.23926   0.59218   0.91245   1.000
    O39     O    0.25174   0.43246   0.90658   1.000
    O40     O    0.25257   0.58321   0.05687   1.000
    Zr41    Zr   0.96304   0.74046   0.01736   1.000
    O42     O    0.90537   0.74418   0.93595   1.000
    O43     O    0.88979   0.74296   0.08340   1.000
    O44     O    0.05068   0.73393   0.08504   1.000
    Zr45    Zr   0.53413   0.73537   0.98075   1.000
    O46     O    0.60715   0.73297   0.91461   1.000
    O47     O    0.44634   0.74128   0.91300   1.000
    O48     O    0.59169   0.73209   0.06219   1.000
    Zr49    Zr   0.83592   0.00820   0.49781   1.000
    O50     O    0.80779   0.91506   0.56983   1.000
    O51     O    0.79724   0.06475   0.57579   1.000
    O52     O    0.78642   0.91438   0.42648   1.000
    Zr53    Zr   0.02243   0.23996   0.99430   1.000
    O54     O    0.10136   0.22996   0.92371   1.000
    O55     O    0.94432   0.23740   0.92165   1.000
    O56     O    0.08694   0.23987   0.07180   1.000
    Zr57    Zr   0.65857   0.46758   0.49890   1.000
    O58     O    0.69802   0.41108   0.42112   1.000
    O59     O    0.70818   0.56169   0.57063   1.000
    O60     O    0.68732   0.56114   0.42744   1.000
    Zr61    Zr   0.99921   0.23615   0.49939   1.000
    O62     O    0.91881   0.24029   0.42475   1.000
    O63     O    0.08007   0.23416   0.57250   1.000
    O64     O    0.92202   0.23879   0.57032   1.000
    O65     O    0.07521   0.23321   0.42909   1.000
    Zr66    Zr   0.49779   0.23923   0.49747   1.000
    O67     O    0.57505   0.23663   0.42667   1.000
    O68     O    0.42194   0.24235   0.56775   1.000
    O69     O    0.57824   0.23531   0.57223   1.000
    O70     O    0.41718   0.24126   0.42437   1.000
    Zr71    Zr   0.74622   0.02481   0.97872   1.000
    O72     O    0.75069   0.94059   0.90942   1.000
    O73     O    0.74756   0.09146   0.05987   1.000
    O74     O    0.74159   0.08991   0.91440   1.000
    Zr75    Zr   0.25146   0.95484   0.02366   1.000
    O76     O    0.24589   0.89191   0.94166   1.000
    O77     O    0.24734   0.04332   0.09164   1.000
    O78     O    0.25913   0.88295   0.08614   1.000
loop_
    _geom_bond_atom_site_label_1
    _geom_bond_atom_site_label_2
    _geom_bond_distance
    _geom_bond_site_symmetry_2
    _ccdc_geom_bond_type
    Zr13   O14       1.38805      .   S
    N2     O14       3.26339      .   S
    Zr13   O15       1.55466      .   S
    N6     O15       3.54975      .   S
    Zr13   O16       1.45685      .   S
    N7     O16       3.36436      .   S
    Zr17   O18       1.47509      .   S
    N3     O18       3.32193      .   S
    Zr17   O19       1.50242      .   S
    N5     O19       3.34159      .   S
    Zr17   O20       1.77869      .   S
    N7     O20       3.82600      .   S
    Zr21   O22       1.39584      .   S
    N1     O22       3.25439      .   S
    Zr21   O23       1.43356  1_554   S
    N4     O23       3.35541      .   S
    Zr21   O24       1.42446      .   S
    N5     O24       3.44517      .   S
    Zr25   O26       1.43117      .   S
    N1     O26       3.32886      .   S
    Zr25   O27       1.56796  1_554   S
    N0     O27       3.50704      .   S
    Zr25   O28       1.44845      .   S
    N6     O28       3.26523      .   S
    Zr29   O30       1.55365      .   S
    N2     O30       3.54029      .   S
    Zr29   O31       1.45793  1_655   S
    N3     O31       3.36903      .   S
    Zr29   O32       1.38904      .   S
    N6     O32       3.26514      .   S
    Zr33   O34       1.78619  1_545   S
    N3     O34       3.83605      .   S
    Zr33   O35       1.50183      .   S
    N4     O35       3.33911      .   S
    Zr33   O36       1.47223  1_545   S
    N7     O36       3.31772      .   S
    Zr37   O38       1.42808      .   S
    N3     O38       3.44820      .   S
    Zr37   O39       1.42020      .   S
    N4     O39       3.31027      .   S
    Zr37   O40       1.44507  1_556   S
    N7     O40       3.38117      .   S
    Zr41   O42       1.45409  1_554   S
    N2     O42       3.41438      .   S
    Zr41   O43       1.41312      .   S
    N6     O43       3.41731      .   S
    Zr41   O44       1.41677  1_655   S
    N7     O44       3.31472      .   S
    Zr45   O46       1.41296      .   S
    N2     O46       3.41542      .   S
    Zr45   O47       1.41641      .   S
    N3     O47       3.31359      .   S
    Zr45   O48       1.45277  1_556   S
    N6     O48       3.40990      .   S
    Zr49   O50       1.73138  1_545   S
    N2     O50       3.75226      .   S
    Zr49   O51       1.50247      .   S
    N0     O51       3.30939      .   S
    Zr49   O52       1.46140  1_545   S
    N6     O52       3.30269      .   S
    Zr53   O54       1.51809      .   S
    N4     O54       3.59526      .   S
    Zr53   O55       1.40037  1_455   S
    N0     O55       3.31933      .   S
    Zr53   O56       1.41173  1_556   S
    N5     O56       3.27050      .   S
    Zr57   O58       1.50309      .   S
    N1     O58       3.31408      .   S
    Zr57   O59       1.46785      .   S
    N2     O59       3.31453      .   S
    Zr57   O60       1.72800      .   S
    N6     O60       3.74382      .   S
    Zr61   O62       1.45851      .   S
    N1     O62       3.39157      .   S
    Zr61   O63       1.43378  1_655   S
    N4     O63       3.32682      .   S
    Zr61   O64       1.50790      .   S
    N0     O64       3.60496      .   S
    Zr61   O65       1.49139  1_655   S
    N5     O65       3.56745      .   S
    Zr66   O67       1.50658      .   S
    N1     O67       3.60415      .   S
    Zr66   O68       1.49021      .   S
    N4     O68       3.56554      .   S
    Zr66   O69       1.45971      .   S
    N0     O69       3.39551      .   S
    Zr66   O70       1.43227      .   S
    N5     O70       3.32217      .   S
    Zr71   O72       1.40607  1_545   S
    N2     O72       3.26194      .   S
    Zr71   O73       1.45784  1_556   S
    N1     O73       3.42487      .   S
    Zr71   O74       1.39946      .   S
    N0     O74       3.38850      .   S
    Zr75   O76       1.44733  1_554   S
    N3     O76       3.38706      .   S
    Zr75   O77       1.41739  1_565   S
    N5     O77       3.30225      .   S
    Zr75   O78       1.42818      .   S
    N7     O78       3.44733      .   S
