# CIF file generated by openbabel 2.4.90, see http://openbabel.sf.net
data_I
_chemical_name_common ''
_cell_length_a 13.968
_cell_length_b 15.512
_cell_length_c 19.523
_cell_angle_alpha 90
_cell_angle_beta 102.061
_cell_angle_gamma 90
_space_group_name_H-M_alt 'P 1'
_space_group_name_Hall 'P 1'
loop_
    _symmetry_equiv_pos_as_xyz
    x,y,z
loop_
    _atom_site_label
    _atom_site_type_symbol
    _atom_site_fract_x
    _atom_site_fract_y
    _atom_site_fract_z
    _atom_site_occupancy
    Cd0     Cd   0.99995   0.99999   0.49997   1.000
    Cd1     Cd   0.99994   0.49999   0.99998   1.000
    Cd2     Cd   0.99994   0.50000   0.49997   1.000
    Cd3     Cd   0.49995   0.99999   0.99999   1.000
    Cd4     Cd   0.49995   0.00000   0.49998   1.000
    Cd5     Cd   0.49995   0.49999   0.49998   1.000
    Cd6     Cd   0.49995   0.50001   0.99999   1.000
    Ni7     Ni   0.24957   0.25000   0.99989   1.000
    Ni8     Ni   0.24954   0.25000   0.49980   1.000
    Ni9     Ni   0.24955   0.74999   0.99987   1.000
    Ni10    Ni   0.24956   0.75000   0.49988   1.000
    Ni11    Ni   0.75027   0.24999   0.00000   1.000
    Ni12    Ni   0.75030   0.25000   0.50006   1.000
    Ni13    Ni   0.75025   0.75000   0.50005   1.000
    Cd14    Cd   0.99994   0.00000   0.99998   1.000
