# CIF file generated by openbabel 2.4.90, see http://openbabel.sf.net
data_I
_chemical_name_common ''
_cell_length_a 13.968
_cell_length_b 15.512
_cell_length_c 19.523
_cell_angle_alpha 90
_cell_angle_beta 102.061
_cell_angle_gamma 90
_space_group_name_H-M_alt 'P 1'
_space_group_name_Hall 'P 1'
loop_
    _symmetry_equiv_pos_as_xyz
    x,y,z
loop_
    _atom_site_label
    _atom_site_type_symbol
    _atom_site_fract_x
    _atom_site_fract_y
    _atom_site_fract_z
    _atom_site_occupancy
    Zr0     Zr   0.99994   0.00000   0.99998   1.000
    Zr1     Zr   0.99995   0.99999   0.49997   1.000
    Zr2     Zr   0.99994   0.49999   0.99998   1.000
    Zr3     Zr   0.99994   0.50000   0.49997   1.000
    Zr4     Zr   0.49995   0.99999   0.99999   1.000
    Zr5     Zr   0.49995   0.00000   0.49998   1.000
    Zr6     Zr   0.49995   0.49999   0.49998   1.000
    Zr7     Zr   0.49995   0.50001   0.99999   1.000
    Zr8     Zr   0.24957   0.25000   0.99989   1.000
    Zr9     Zr   0.24954   0.25000   0.49980   1.000
    Zr10    Zr   0.24955   0.74999   0.99987   1.000
    Zr11    Zr   0.24956   0.75000   0.49988   1.000
    Zr12    Zr   0.75027   0.24999   0.00000   1.000
    Zr13    Zr   0.75030   0.25000   0.50006   1.000
    Zr14    Zr   0.75025   0.75000   0.50005   1.000
    N15     N    0.74993   1.00000   0.25000   1.000
    O16     O    0.86714   0.00000   0.15344   1.000
    O17     O    0.63271   0.00000   0.34654   1.000
    N18     N    0.25004   1.00000   0.24998   1.000
    O19     O    0.36724   1.00000   0.15343   1.000
    O20     O    0.13281   1.00000   0.34653   1.000
    N21     N    0.35606   0.86168   0.97018   1.000
    O22     O    0.32305   0.82691   0.97932   1.000
    O23     O    0.39842   0.90310   0.97592   1.000
    N24     N    0.74993   0.49999   0.74999   1.000
    O25     O    0.86714   0.50000   0.65343   1.000
    O26     O    0.63271   0.50000   0.84654   1.000
    N27     N    0.25004   0.50000   0.24998   1.000
    O28     O    0.36723   0.50000   0.15343   1.000
    O29     O    0.13280   0.50000   0.34653   1.000
    N30     N    0.25004   0.99999   0.74997   1.000
    O31     O    0.13281   1.00000   0.84652   1.000
    O32     O    0.36724   1.00000   0.65340   1.000
    N33     N    0.85643   0.13828   0.97004   1.000
    O34     O    0.89866   0.09686   0.97579   1.000
    O35     O    0.82354   0.17306   0.97927   1.000
    N36     N    0.85641   0.63828   0.47007   1.000
    O37     O    0.82352   0.67306   0.47931   1.000
    O38     O    0.89864   0.59686   0.47580   1.000
    N39     N    0.25004   0.49999   0.74996   1.000
    O40     O    0.36724   0.49999   0.65342   1.000
    O41     O    0.13280   0.49999   0.84652   1.000
    N42     N    0.74992   0.50000   0.25000   1.000
    O43     O    0.86714   0.50000   0.15344   1.000
    O44     O    0.63271   0.49999   0.34654   1.000
    N45     N    0.64382   0.36169   0.02978   1.000
    O46     O    0.60147   0.40312   0.02405   1.000
    O47     O    0.67681   0.32692   0.02062   1.000
    N48     N    0.14345   0.36172   0.02988   1.000
    O49     O    0.17633   0.32694   0.02064   1.000
    O50     O    0.10123   0.40314   0.02416   1.000
    N51     N    0.35607   0.13831   0.97017   1.000
    O52     O    0.39843   0.09689   0.97591   1.000
    O53     O    0.32307   0.17307   0.97932   1.000
    N54     N    0.64384   0.36169   0.52975   1.000
    O55     O    0.67683   0.32692   0.52062   1.000
    O56     O    0.60148   0.40311   0.52402   1.000
    N57     N    0.85643   0.36171   0.47007   1.000
    O58     O    0.89866   0.40314   0.47580   1.000
    O59     O    0.82355   0.32693   0.47931   1.000
    N60     N    0.74993   0.99999   0.74999   1.000
    O61     O    0.86714   0.99999   0.65341   1.000
    O62     O    0.63271   0.99999   0.84654   1.000
    N63     N    0.14344   0.63828   0.52988   1.000
    O64     O    0.17632   0.67306   0.52063   1.000
    O65     O    0.10122   0.59686   0.52415   1.000
    N66     N    0.85643   0.36171   0.97006   1.000
    O67     O    0.89866   0.40313   0.97580   1.000
    O68     O    0.82354   0.32693   0.97929   1.000
    N69     N    0.35605   0.63831   0.97018   1.000
    O70     O    0.32305   0.67307   0.97932   1.000
    O71     O    0.39841   0.59689   0.97592   1.000
    N72     N    0.35604   0.36168   0.47019   1.000
    O73     O    0.39840   0.40310   0.47592   1.000
    O74     O    0.32304   0.32692   0.47931   1.000
    N75     N    0.35605   0.13832   0.47019   1.000
    O76     O    0.32304   0.17308   0.47931   1.000
    O77     O    0.39841   0.09689   0.47592   1.000
    N78     N    0.35605   0.63830   0.47019   1.000
    O79     O    0.32304   0.67307   0.47933   1.000
    O80     O    0.39841   0.59688   0.47592   1.000
    N81     N    0.14345   0.13828   0.02988   1.000
    O82     O    0.17633   0.17306   0.02064   1.000
    O83     O    0.10123   0.09686   0.02416   1.000
    N84     N    0.64381   0.86169   0.52975   1.000
    O85     O    0.67680   0.82692   0.52061   1.000
    O86     O    0.60147   0.90312   0.52402   1.000
    N87     N    0.35607   0.36168   0.97017   1.000
    O88     O    0.39842   0.40311   0.97591   1.000
    O89     O    0.32307   0.32692   0.97932   1.000
    N90     N    0.35606   0.86168   0.47016   1.000
    O91     O    0.39841   0.90311   0.47591   1.000
    O92     O    0.32305   0.82692   0.47930   1.000
    N93     N    0.85641   0.86170   0.47008   1.000
    O94     O    0.82352   0.82693   0.47932   1.000
    O95     O    0.89865   0.90313   0.47581   1.000
    N96     N    0.14345   0.86172   0.52988   1.000
    O97     O    0.17632   0.82694   0.52063   1.000
    O98     O    0.10123   0.90314   0.52415   1.000
    N99     N    0.85644   0.13828   0.47007   1.000
    O100    O    0.82355   0.17306   0.47932   1.000
    O101    O    0.89866   0.09686   0.47580   1.000
    N102    N    0.14344   0.13827   0.52988   1.000
    O103    O    0.17631   0.17305   0.52061   1.000
    O104    O    0.10122   0.09685   0.52415   1.000
    N105    N    0.64382   0.13830   0.02979   1.000
    O106    O    0.60148   0.09688   0.02406   1.000
    O107    O    0.67681   0.17307   0.02062   1.000
    N108    N    0.14343   0.63828   0.02988   1.000
    O109    O    0.17631   0.67306   0.02063   1.000
    O110    O    0.10121   0.59685   0.02416   1.000
    N111    N    0.64381   0.63830   0.52978   1.000
    O112    O    0.67680   0.67307   0.52063   1.000
    O113    O    0.60147   0.59688   0.52405   1.000
    N114    N    0.64384   0.13830   0.52975   1.000
    O115    O    0.67684   0.17307   0.52062   1.000
    O116    O    0.60149   0.09688   0.52402   1.000
    N117    N    0.14344   0.36172   0.52988   1.000
    O118    O    0.17631   0.32694   0.52061   1.000
    O119    O    0.10122   0.40314   0.52415   1.000
    N120    N    0.14344   0.86172   0.02989   1.000
    O121    O    0.17631   0.82694   0.02063   1.000
    O122    O    0.10122   0.90315   0.02416   1.000
loop_
    _geom_bond_atom_site_label_1
    _geom_bond_atom_site_label_2
    _geom_bond_distance
    _geom_bond_site_symmetry_2
    _ccdc_geom_bond_type
    N15    O16       2.74298  1_565   S
    Zr0    O16       3.83922  1_556   S
    N15    O17       2.74273  1_565   S
    Zr5    O17       3.83851      .   S
    N18    O19       2.74258      .   S
    Zr4    O19       3.83815  1_556   S
    N18    O20       2.74309      .   S
    Zr1    O20       3.83937  1_655   S
    N21    O22       0.75469      .   S
    Zr10   O22       1.67648      .   S
    N21    O23       0.86473      .   S
    Zr4    O23       2.05253      .   S
    N24    O25       2.74303      .   S
    Zr3    O25       3.83927      .   S
    N24    O26       2.74279      .   S
    Zr7    O26       3.83871      .   S
    N27    O28       2.74255      .   S
    Zr7    O28       3.83810  1_556   S
    N27    O29       2.74312      .   S
    Zr3    O29       3.83942  1_655   S
    N30    O31       2.74320      .   S
    Zr0    O31       3.83970  1_645   S
    N30    O32       2.74287      .   S
    Zr5    O32       3.83776  1_545   S
    N33    O34       0.86352      .   S
    Zr0    O34       2.05006      .   S
    N33    O35       0.75440      .   S
    Zr12   O35       1.67582  1_554   S
    N36    O37       0.75450      .   S
    Zr14   O37       1.67589      .   S
    N36    O38       0.86358      .   S
    Zr3    O38       2.05019      .   S
    N39    O40       2.74249      .   S
    Zr6    O40       3.83812      .   S
    N39    O41       2.74323      .   S
    Zr2    O41       3.83973  1_655   S
    N42    O43       2.74300      .   S
    Zr2    O43       3.83923  1_556   S
    N42    O44       2.74271      .   S
    Zr6    O44       3.83850      .   S
    N45    O46       0.86463      .   S
    Zr7    O46       2.05235  1_556   S
    N45    O47       0.75481      .   S
    Zr12   O47       1.67681      .   S
    N48    O49       0.75446      .   S
    Zr8    O49       1.67578  1_556   S
    N48    O50       0.86349      .   S
    Zr2    O50       2.05002  1_656   S
    N51    O52       0.86467      .   S
    Zr4    O52       2.05239  1_565   S
    N51    O53       0.75480      .   S
    Zr8    O53       1.67671      .   S
    N54    O55       0.75458      .   S
    Zr13   O55       1.67632      .   S
    N54    O56       0.86465      .   S
    Zr6    O56       2.05235      .   S
    N57    O58       0.86354      .   S
    Zr3    O58       2.05011      .   S
    N57    O59       0.75449      .   S
    Zr13   O59       1.67587      .   S
    N60    O61       2.74327      .   S
    Zr1    O61       3.83895      .   S
    N60    O62       2.74283      .   S
    Zr4    O62       3.83874      .   S
    N63    O64       0.75446      .   S
    Zr11   O64       1.67580      .   S
    N63    O65       0.86345      .   S
    Zr3    O65       2.04995  1_655   S
    N66    O67       0.86355      .   S
    Zr2    O67       2.05013      .   S
    N66    O68       0.75441      .   S
    Zr12   O68       1.67564  1_554   S
    N69    O70       0.75469      .   S
    Zr10   O70       1.67647      .   S
    N69    O71       0.86468      .   S
    Zr7    O71       2.05240      .   S
    N72    O73       0.86471      .   S
    Zr6    O73       2.05247      .   S
    N72    O74       0.75456      .   S
    Zr9    O74       1.67606      .   S
    N75    O76       0.75457      .   S
    Zr9    O76       1.67608      .   S
    N75    O77       0.86472      .   S
    Zr5    O77       2.05250      .   S
    N78    O79       0.75470      .   S
    Zr11   O79       1.67647      .   S
    N78    O80       0.86474      .   S
    Zr6    O80       2.05255      .   S
    N81    O82       0.75446      .   S
    Zr8    O82       1.67579  1_556   S
    N81    O83       0.86348      .   S
    Zr0    O83       2.04999  1_656   S
    N84    O85       0.75455      .   S
    Zr14   O85       1.67623      .   S
    N84    O86       0.86461      .   S
    Zr5    O86       2.05225  1_545   S
    N87    O88       0.86469      .   S
    Zr7    O88       2.05246      .   S
    N87    O89       0.75477      .   S
    Zr8    O89       1.67660      .   S
    N90    O91       0.86475      .   S
    Zr5    O91       2.05259  1_545   S
    N90    O92       0.75470      .   S
    Zr11   O92       1.67665      .   S
    N93    O94       0.75449      .   S
    Zr14   O94       1.67590      .   S
    N93    O95       0.86359      .   S
    Zr1    O95       2.05021      .   S
    N96    O97       0.75445      .   S
    Zr11   O97       1.67578      .   S
    N96    O98       0.86345      .   S
    Zr1    O98       2.04994  1_655   S
    N99    O100      0.75448      .   S
    Zr13   O100      1.67587      .   S
    N99    O101      0.86354      .   S
    Zr1    O101      2.05012  1_565   S
    N102   O103      0.75460      .   S
    Zr9    O103      1.67621      .   S
    N102   O104      0.86346      .   S
    Zr1    O104      2.04997  1_665   S
    N105   O106      0.86463      .   S
    Zr4    O106      2.05233  1_566   S
    N105   O107      0.75478      .   S
    Zr12   O107      1.67672      .   S
    N108   O109      0.75449      .   S
    Zr10   O109      1.67590  1_556   S
    N108   O110      0.86346      .   S
    Zr2    O110      2.04996  1_656   S
    N111   O112      0.75465      .   S
    Zr14   O112      1.67636      .   S
    N111   O113      0.86462      .   S
    Zr6    O113      2.05230      .   S
    N114   O115      0.75459      .   S
    Zr13   O115      1.67631      .   S
    N114   O116      0.86465      .   S
    Zr5    O116      2.05233      .   S
    N117   O118      0.75459      .   S
    Zr9    O118      1.67620      .   S
    N117   O119      0.86346      .   S
    Zr3    O119      2.04999  1_655   S
    N120   O121      0.75453      .   S
    Zr10   O121      1.67598  1_556   S
    N120   O122      0.86346      .   S
    Zr0    O122      2.04997  1_646   S
