# CIF file generated by openbabel 2.4.90, see http://openbabel.sf.net
data_I
_chemical_name_common ''
_cell_length_a 15.44
_cell_length_b 17.79
_cell_length_c 18.318
_cell_angle_alpha 112.232
_cell_angle_beta 90.004
_cell_angle_gamma 89.996
_space_group_name_H-M_alt 'P 1'
_space_group_name_Hall 'P 1'
loop_
    _symmetry_equiv_pos_as_xyz
    x,y,z
loop_
    _atom_site_label
    _atom_site_type_symbol
    _atom_site_fract_x
    _atom_site_fract_y
    _atom_site_fract_z
    _atom_site_occupancy
    Zn0     Zn   0.09665   0.00295   0.16680   1.000
    Zn1     Zn   0.59908   0.49677   0.99659   1.000
    Zn2     Zn   0.90009   0.00000   0.16628   1.000
    Zn3     Zn   0.00000   0.99736   0.66599   1.000
    Zn4     Zn   0.59666   0.49706   0.33320   1.000
    Zn5     Zn   0.09908   0.00320   0.50343   1.000
    Zn6     Zn   0.40008   0.49994   0.33370   1.000
    Zn7     Zn   0.49998   0.49735   0.16599   1.000
    Zn8     Zn   0.90337   0.99707   0.83320   1.000
    Zn9     Zn   0.40093   0.50322   0.00342   1.000
    Zn10    Zn   0.09992   0.99993   0.83371   1.000
    Zn11    Zn   0.99997   0.00264   0.33401   1.000
    Zn12    Zn   0.40336   0.50295   0.66680   1.000
    Zn13    Zn   0.90094   0.99680   0.49657   1.000
    Zn14    Zn   0.59993   0.50005   0.66629   1.000
    Zn15    Zn   1.00000   0.99999   0.99999   1.000
    Zn16    Zn   0.50001   0.49999   0.50000   1.000
    Zn17    Zn   0.50003   0.50266   0.83402   1.000
