# CIF file generated by openbabel 2.4.90, see http://openbabel.sf.net
data_I
_chemical_name_common ''
_cell_length_a 15.44
_cell_length_b 17.79
_cell_length_c 18.318
_cell_angle_alpha 112.232
_cell_angle_beta 90.004
_cell_angle_gamma 89.996
_space_group_name_H-M_alt 'P 1'
_space_group_name_Hall 'P 1'
loop_
    _symmetry_equiv_pos_as_xyz
    x,y,z
loop_
    _atom_site_label
    _atom_site_type_symbol
    _atom_site_fract_x
    _atom_site_fract_y
    _atom_site_fract_z
    _atom_site_occupancy
    Zr0     Zr   0.50003   0.50266   0.83402   1.000
    Zr1     Zr   0.09665   0.00295   0.16680   1.000
    Zr2     Zr   0.59908   0.49677   0.99659   1.000
    Zr3     Zr   0.90009   0.00000   0.16628   1.000
    Zr4     Zr   0.00000   0.99736   0.66599   1.000
    Zr5     Zr   0.59666   0.49706   0.33320   1.000
    Zr6     Zr   0.09908   0.00320   0.50343   1.000
    Zr7     Zr   0.40008   0.49994   0.33370   1.000
    Zr8     Zr   0.49998   0.49735   0.16599   1.000
    Zr9     Zr   0.90337   0.99707   0.83320   1.000
    Zr10    Zr   0.40093   0.50322   0.00342   1.000
    Zr11    Zr   0.09992   0.99993   0.83371   1.000
    Zr12    Zr   0.99997   0.00264   0.33401   1.000
    Zr13    Zr   0.40336   0.50295   0.66680   1.000
    Zr14    Zr   0.90094   0.99680   0.49657   1.000
    Zr15    Zr   0.59993   0.50005   0.66629   1.000
    Zr16    Zr   1.00000   0.99999   0.99999   1.000
    Zr17    Zr   0.50001   0.49999   0.50000   1.000
    N18     N    0.69250   0.31405   0.13046   1.000
    O19     O    0.68896   0.35051   0.18800   1.000
    O20     O    0.64020   0.34466   0.12160   1.000
    N21     N    0.69830   0.68025   0.86821   1.000
    O22     O    0.65540   0.64160   0.87835   1.000
    O23     O    0.68974   0.64847   0.81002   1.000
    N24     N    0.82050   0.80362   0.29544   1.000
    O25     O    0.86958   0.83889   0.28679   1.000
    O26     O    0.82141   0.84084   0.35240   1.000
    N27     N    0.21275   0.83486   0.30077   1.000
    O28     O    0.20186   0.86468   0.35919   1.000
    O29     O    0.16588   0.87102   0.29028   1.000
    N30     N    0.19855   0.17901   0.03545   1.000
    O31     O    0.15554   0.13994   0.04522   1.000
    O32     O    0.18987   0.14778   0.97744   1.000
    N33     N    0.69528   0.68022   0.53364   1.000
    O34     O    0.64242   0.65067   0.54254   1.000
    O35     O    0.69166   0.64302   0.47654   1.000
    N36     N    0.19829   0.81976   0.63178   1.000
    O37     O    0.15538   0.85842   0.62164   1.000
    O38     O    0.18973   0.85153   0.68997   1.000
    N39     N    0.78725   0.16514   0.69921   1.000
    O40     O    0.83412   0.12898   0.70971   1.000
    O41     O    0.79814   0.13532   0.64078   1.000
    N42     N    0.28725   0.33485   0.80078   1.000
    O43     O    0.33413   0.37100   0.79029   1.000
    O44     O    0.29814   0.36467   0.85919   1.000
    N45     N    0.30750   0.68595   0.86950   1.000
    O46     O    0.31104   0.64950   0.81197   1.000
    O47     O    0.35980   0.65534   0.87838   1.000
    N48     N    0.19243   0.18598   0.36950   1.000
    O49     O    0.14014   0.15537   0.37837   1.000
    O50     O    0.18890   0.14953   0.31197   1.000
    N51     N    0.69856   0.32097   0.46452   1.000
    O52     O    0.65555   0.36005   0.45476   1.000
    O53     O    0.68988   0.35220   0.52254   1.000
    C54     C    0.99560   0.07754   0.12949   1.000
    O55     O    0.97206   0.05082   0.13681   1.000
    O56     O    0.02119   0.05155   0.13694   1.000
    O57     O    0.99703   0.05081   0.09524   1.000
    C58     C    0.99904   0.92621   0.20424   1.000
    O59     O    0.02352   0.95272   0.19661   1.000
    O60     O    0.99936   0.95264   0.23841   1.000
    O61     O    0.97439   0.95198   0.19648   1.000
    C62     C    0.99924   0.07669   0.46457   1.000
    O63     O    0.97485   0.04936   0.47055   1.000
    O64     O    0.02439   0.05096   0.47226   1.000
    O65     O    0.99961   0.05082   0.42991   1.000
    C66     C    0.00440   0.92247   0.87051   1.000
    O67     O    0.97881   0.94846   0.86306   1.000
    O68     O    0.00297   0.94919   0.90476   1.000
    O69     O    0.02795   0.94917   0.86319   1.000
    C70     C    0.00000   0.07379   0.79576   1.000
    O71     O    0.97584   0.04729   0.80339   1.000
    O72     O    0.00000   0.04736   0.76159   1.000
    O73     O    0.02498   0.04800   0.80352   1.000
    C74     C    0.00000   0.92331   0.53544   1.000
    O75     O    0.02477   0.95064   0.52946   1.000
    O76     O    0.00000   0.94918   0.57010   1.000
    O77     O    0.97523   0.94904   0.52774   1.000
    C78     C    0.49561   0.42245   0.37050   1.000
    O79     O    0.47206   0.44916   0.36318   1.000
    O80     O    0.52120   0.44844   0.36305   1.000
    O81     O    0.49704   0.44918   0.40475   1.000
    C82     C    0.50441   0.57754   0.62945   1.000
    O83     O    0.52796   0.55083   0.63678   1.000
    O84     O    0.47882   0.55156   0.63690   1.000
    O85     O    0.50298   0.55082   0.59520   1.000
    C86     C    0.49925   0.42330   0.03541   1.000
    O87     O    0.52439   0.44903   0.02773   1.000
    O88     O    0.49962   0.44917   0.07008   1.000
    O89     O    0.47486   0.45064   0.02944   1.000
    C90     C    0.50076   0.57670   0.96457   1.000
    O91     O    0.52515   0.54936   0.97055   1.000
    O92     O    0.50039   0.55083   0.92991   1.000
    O93     O    0.47562   0.55097   0.97226   1.000
    C94     C    0.50097   0.42620   0.70426   1.000
    O95     O    0.47648   0.45271   0.69662   1.000
    O96     O    0.50065   0.45264   0.73843   1.000
    O97     O    0.52563   0.45199   0.69649   1.000
    C98     C    0.49903   0.57380   0.29572   1.000
    O99     O    0.52353   0.54729   0.30337   1.000
    O100    O    0.47438   0.54801   0.30349   1.000
    O101    O    0.49936   0.54737   0.26157   1.000
    C102    C    0.19521   0.81976   0.96637   1.000
    O103    O    0.19161   0.85697   0.02347   1.000
    O104    O    0.14237   0.84931   0.95747   1.000
    O105    O    0.25166   0.75300   0.91816   1.000
    C106    C    0.71276   0.66515   0.19921   1.000
    O107    O    0.66589   0.62900   0.20971   1.000
    O108    O    0.70187   0.63532   0.14080   1.000
    O109    O    0.77053   0.73114   0.24713   1.000
    C110    C    0.80146   0.82098   0.96452   1.000
    O111    O    0.81014   0.85220   0.02253   1.000
    O112    O    0.84447   0.86006   0.95475   1.000
    O113    O    0.74977   0.75068   0.91627   1.000
    C114    C    0.80172   0.18023   0.36821   1.000
    O115    O    0.84462   0.14157   0.37835   1.000
    O116    O    0.81028   0.14845   0.31000   1.000
    O117    O    0.75025   0.25066   0.41627   1.000
    C118    C    0.30145   0.67902   0.53547   1.000
    O119    O    0.31012   0.64779   0.47745   1.000
    O120    O    0.34446   0.63994   0.54523   1.000
    O121    O    0.24976   0.74933   0.58372   1.000
    C122    C    0.30170   0.31975   0.13175   1.000
    O123    O    0.34461   0.35841   0.12162   1.000
    O124    O    0.31027   0.35153   0.18995   1.000
    O125    O    0.25024   0.24932   0.08368   1.000
    C126    C    0.32050   0.69640   0.20454   1.000
    O127    O    0.36957   0.66113   0.21320   1.000
    O128    O    0.32140   0.65919   0.14758   1.000
    O129    O    0.27052   0.76888   0.25285   1.000
    C130    C    0.67950   0.30359   0.79545   1.000
    O131    O    0.63044   0.33887   0.78679   1.000
    O132    O    0.67860   0.34080   0.85241   1.000
    O133    O    0.72948   0.23111   0.74713   1.000
    C134    C    0.17951   0.19638   0.70455   1.000
    O135    O    0.17862   0.15916   0.64760   1.000
    O136    O    0.13043   0.16112   0.71320   1.000
    O137    O    0.22948   0.26886   0.75285   1.000
    C138    C    0.30473   0.31979   0.46636   1.000
    O139    O    0.35758   0.34933   0.45746   1.000
    O140    O    0.30834   0.35699   0.52346   1.000
    O141    O    0.24825   0.25305   0.41815   1.000
    C142    C    0.80757   0.81403   0.63050   1.000
    O143    O    0.81110   0.85049   0.68803   1.000
    O144    O    0.85985   0.84464   0.62163   1.000
    O145    O    0.75175   0.74696   0.58185   1.000
    C146    C    0.80479   0.18024   0.03360   1.000
    O147    O    0.80839   0.14304   0.97651   1.000
    O148    O    0.85764   0.15068   0.04250   1.000
    O149    O    0.74834   0.24700   0.08179   1.000
loop_
    _geom_bond_atom_site_label_1
    _geom_bond_atom_site_label_2
    _geom_bond_distance
    _geom_bond_site_symmetry_2
    _ccdc_geom_bond_type
    N18    O19       1.00849      .   S
    Zr5    O19       3.26431      .   S
    N18    O20       1.02062      .   S
    Zr8    O20       3.32494      .   S
    N21    O22       1.02121      .   S
    Zr0    O22       3.31740      .   S
    N21    O23       1.00864      .   S
    Zr15   O23       3.25055      .   S
    N24    O25       1.03347      .   S
    Zr12   O25       3.37369  1_545   S
    N24    O26       1.00218      .   S
    Zr14   O26       3.26129      .   S
    N27    O28       1.01250      .   S
    Zr6    O28       3.26274  1_545   S
    N27    O29       1.03345      .   S
    Zr12   O29       3.35654  1_645   S
    N30    O31       1.02495      .   S
    Zr16   O31       3.33047  1_666   S
    N30    O32       1.00446  1_554   S
    Zr11   O32       3.24631  1_565   S
    N33    O34       1.01671      .   S
    Zr17   O34       3.32380      .   S
    N33    O35       1.00570      .   S
    Zr5    O35       3.26026      .   S
    N36    O37       1.02123      .   S
    Zr4    O37       3.31745      .   S
    N36    O38       1.00862      .   S
    Zr11   O38       3.25039      .   S
    N39    O40       1.03342      .   S
    Zr4    O40       3.35618  1_465   S
    N39    O41       1.01265      .   S
    Zr14   O41       3.26255  1_565   S
    N42    O43       1.03351      .   S
    Zr0    O43       3.35703      .   S
    N42    O44       1.01248      .   S
    Zr10   O44       3.26289  1_554   S
    N45    O46       1.00848      .   S
    Zr13   O46       3.26398      .   S
    N45    O47       1.02070      .   S
    Zr0    O47       3.32496      .   S
    N48    O49       1.02081      .   S
    Zr12   O49       3.32509  1_655   S
    N48    O50       1.00841      .   S
    Zr1    O50       3.26386      .   S
    N51    O52       1.02486      .   S
    Zr17   O52       3.33032      .   S
    N51    O53       1.00463      .   S
    Zr15   O53       3.24654      .   S
    C54    O55       0.65144      .   S
    Zr3    O55       1.64707      .   S
    C54    O56       0.66044  1_655   S
    Zr1    O56       1.66185      .   S
    C54    O57       0.62807      .   S
    Zr16   O57       1.63401  1_566   S
    C58    O59       0.65940  1_655   S
    Zr1    O59       1.65553  1_545   S
    C58    O60       0.62461      .   S
    Zr12   O60       1.63681  1_545   S
    C58    O61       0.65161      .   S
    Zr3    O61       1.64594  1_545   S
    C62    O63       0.65614      .   S
    Zr14   O63       1.65574  1_565   S
    C62    O64       0.65493  1_655   S
    Zr6    O64       1.65667      .   S
    C62    O65       0.62764      .   S
    Zr12   O65       1.63738      .   S
    C66    O67       0.66044  1_455   S
    Zr9    O67       1.66186      .   S
    C66    O68       0.62795      .   S
    Zr16   O68       1.63372  1_655   S
    C66    O69       0.65122      .   S
    Zr11   O69       1.64652      .   S
    C70    O71       0.65646  1_455   S
    Zr9    O71       1.64864  1_565   S
    C70    O72       0.62459      .   S
    Zr4    O72       1.63678  1_565   S
    C70    O73       0.65484      .   S
    Zr11   O73       1.65351  1_565   S
    C74    O75       0.65955      .   S
    Zr6    O75       1.65993  1_545   S
    C74    O76       0.62759      .   S
    Zr4    O76       1.63733      .   S
    C74    O77       0.65146  1_455   S
    Zr14   O77       1.65244      .   S
    C78    O79       0.65128      .   S
    Zr7    O79       1.64666      .   S
    C78    O80       0.66047      .   S
    Zr5    O80       1.66204      .   S
    C78    O81       0.62809      .   S
    Zr17   O81       1.63404      .   S
    C82    O83       0.65129      .   S
    Zr15   O83       1.64707      .   S
    C82    O84       0.66048      .   S
    Zr13   O84       1.66245      .   S
    C82    O85       0.62807      .   S
    Zr17   O85       1.63331      .   S
    C86    O87       0.65484      .   S
    Zr2    O87       1.65628  1_556   S
    C86    O88       0.62764      .   S
    Zr8    O88       1.63762      .   S
    C86    O89       0.65627      .   S
    Zr10   O89       1.65594      .   S
    C90    O91       0.65628      .   S
    Zr2    O91       1.65617      .   S
    C90    O92       0.62763      .   S
    Zr0    O92       1.63728      .   S
    C90    O93       0.65487      .   S
    Zr10   O93       1.65656  1_554   S
    C94    O95       0.65947      .   S
    Zr13   O95       1.65565      .   S
    C94    O96       0.62462      .   S
    Zr0    O96       1.63682      .   S
    C94    O97       0.65188      .   S
    Zr15   O97       1.64670      .   S
    C98    O99       0.65956      .   S
    Zr5    O99       1.65573      .   S
    C98    O100      0.65198      .   S
    Zr7    O100      1.64681      .   S
    C98    O101      0.62445      .   S
    Zr8    O101      1.63654      .   S
    C102   O103      1.00570  1_556   S
    Zr1    O103      3.26007  1_545   S
    C102   O104      1.01659      .   S
    Zr16   O104      3.32316  1_655   S
    C102   O105      1.46842      .   S
    N45    O105      1.46838      .   S
    C106   O107      1.03351      .   S
    Zr8    O107      3.35702      .   S
    C106   O108      1.01246      .   S
    Zr2    O108      3.26279  1_556   S
    C106   O109      1.47117      .   S
    N24    O109      1.47568      .   S
    C110   O111      1.00456  1_556   S
    Zr3    O111      3.24604  1_545   S
    C110   O112      1.02492      .   S
    Zr16   O112      3.33015      .   S
    C110   O113      1.46486      .   S
    N21    O113      1.46343      .   S
    C114   O115      1.02112      .   S
    Zr12   O115      3.31702      .   S
    C114   O116      1.00881      .   S
    Zr3    O116      3.25069      .   S
    C114   O117      1.46344      .   S
    N51    O117      1.46496      .   S
    C118   O119      1.00463      .   S
    Zr7    O119      3.24654      .   S
    C118   O120      1.02489      .   S
    Zr17   O120      3.33035      .   S
    C118   O121      1.46495      .   S
    N36    O121      1.46342      .   S
    C122   O123      1.02117      .   S
    Zr8    O123      3.31744      .   S
    C122   O124      1.00870      .   S
    Zr7    O124      3.25071      .   S
    C122   O125      1.46351      .   S
    N30    O125      1.46489      .   S
    C126   O127      1.03354      .   S
    Zr8    O127      3.37403      .   S
    C126   O128      1.00219      .   S
    Zr10   O128      3.26125      .   S
    C126   O129      1.47569      .   S
    N27    O129      1.47109      .   S
    C130   O131      1.03355      .   S
    Zr0    O131      3.37406      .   S
    C130   O132      1.00222      .   S
    Zr2    O132      3.26139      .   S
    C130   O133      1.47573      .   S
    N39    O133      1.47108      .   S
    C134   O135      1.00212      .   S
    Zr6    O135      3.26124      .   S
    C134   O136      1.03352      .   S
    Zr4    O136      3.37401  1_565   S
    C134   O137      1.47569      .   S
    N42    O137      1.47119      .   S
    C138   O139      1.01668      .   S
    Zr17   O139      3.32371      .   S
    C138   O140      1.00572      .   S
    Zr13   O140      3.26029      .   S
    C138   O141      1.46851      .   S
    N48    O141      1.46837      .   S
    C142   O143      1.00843      .   S
    Zr9    O143      3.26394      .   S
    C142   O144      1.02070      .   S
    Zr4    O144      3.32477  1_455   S
    C142   O145      1.46835      .   S
    N33    O145      1.46851      .   S
    C146   O147      1.00553  1_554   S
    Zr9    O147      3.25982  1_565   S
    C146   O148      1.01665      .   S
    Zr16   O148      3.32337  1_566   S
    C146   O149      1.46834      .   S
    N18    O149      1.46845      .   S
