# CIF file generated by openbabel 2.4.90, see http://openbabel.sf.net
data_I
_chemical_name_common ''
_cell_length_a 15.44
_cell_length_b 17.79
_cell_length_c 18.318
_cell_angle_alpha 112.232
_cell_angle_beta 90.004
_cell_angle_gamma 89.996
_space_group_name_H-M_alt 'P 1'
_space_group_name_Hall 'P 1'
loop_
    _symmetry_equiv_pos_as_xyz
    x,y,z
loop_
    _atom_site_label
    _atom_site_type_symbol
    _atom_site_fract_x
    _atom_site_fract_y
    _atom_site_fract_z
    _atom_site_occupancy
    Zr0     Zr   0.50003   0.50266   0.83402   1.000
    Zr1     Zr   0.09665   0.00295   0.16680   1.000
    Zr2     Zr   0.59908   0.49677   0.99659   1.000
    Zr3     Zr   0.90009   0.00000   0.16628   1.000
    Zr4     Zr   0.00000   0.99736   0.66599   1.000
    Zr5     Zr   0.59666   0.49706   0.33320   1.000
    Zr6     Zr   0.09908   0.00320   0.50343   1.000
    Zr7     Zr   0.40008   0.49994   0.33370   1.000
    Zr8     Zr   0.49998   0.49735   0.16599   1.000
    Zr9     Zr   0.90337   0.99707   0.83320   1.000
    Zr10    Zr   0.40093   0.50322   0.00342   1.000
    Zr11    Zr   0.09992   0.99993   0.83371   1.000
    Zr12    Zr   0.99997   0.00264   0.33401   1.000
    Zr13    Zr   0.40336   0.50295   0.66680   1.000
    Zr14    Zr   0.90094   0.99680   0.49657   1.000
    Zr15    Zr   0.59993   0.50005   0.66629   1.000
    Zr16    Zr   1.00000   0.99999   0.99999   1.000
    Zr17    Zr   0.50001   0.49999   0.50000   1.000
    Zr18    Zr   0.50132   0.39691   0.69736   1.000
    Zr19    Zr   0.50151   0.60614   0.97268   1.000
    Zr20    Zr   0.99427   0.10688   0.13700   1.000
    Zr21    Zr   0.00000   0.10308   0.80266   1.000
    Zr22    Zr   0.00000   0.89387   0.52734   1.000
    Zr23    Zr   0.49429   0.39310   0.36298   1.000
    Zr24    Zr   0.49868   0.60309   0.30260   1.000
    Zr25    Zr   0.49850   0.39386   0.02733   1.000
    Zr26    Zr   0.00573   0.89312   0.86300   1.000
    Zr27    Zr   0.99870   0.89692   0.19734   1.000
    Zr28    Zr   0.99849   0.10613   0.47267   1.000
    Zr29    Zr   0.50574   0.60689   0.63701   1.000
    Zr30    Zr   0.50062   0.45549   0.71116   1.000
    Zr31    Zr   0.50001   0.54726   0.95647   1.000
    Zr32    Zr   0.99693   0.04819   0.12198   1.000
    Zr33    Zr   0.00000   0.04450   0.78885   1.000
    Zr34    Zr   0.00000   0.95275   0.54353   1.000
    Zr35    Zr   0.49693   0.45180   0.37801   1.000
    Zr36    Zr   0.49938   0.54451   0.28884   1.000
    Zr37    Zr   0.50000   0.45274   0.04350   1.000
    Zr38    Zr   0.00308   0.95182   0.87802   1.000
    Zr39    Zr   0.99938   0.95550   0.21115   1.000
    Zr40    Zr   0.99999   0.04725   0.45647   1.000
    Zr41    Zr   0.50309   0.54820   0.62190   1.000
    O42     O    0.45046   0.47798   0.02346   1.000
    O43     O    0.49925   0.42330   0.03541   1.000
    O44     O    0.99560   0.07754   0.12949   1.000
    O45     O    0.94851   0.02409   0.14413   1.000
    O46     O    0.94973   0.97775   0.18871   1.000
    O47     O    0.99904   0.92621   0.20424   1.000
    O48     O    0.49903   0.57380   0.29572   1.000
    O49     O    0.54802   0.52078   0.31102   1.000
    O50     O    0.44850   0.47587   0.35586   1.000
    O51     O    0.49561   0.42245   0.37050   1.000
    O52     O    0.99924   0.07669   0.46457   1.000
    O53     O    0.95047   0.02202   0.47652   1.000
    O54     O    0.04954   0.97797   0.52348   1.000
    O55     O    0.00000   0.92331   0.53544   1.000
    O56     O    0.50441   0.57754   0.62945   1.000
    O57     O    0.55151   0.52412   0.64410   1.000
    O58     O    0.45199   0.47922   0.68898   1.000
    O59     O    0.50097   0.42620   0.70426   1.000
    O60     O    0.00000   0.07379   0.79576   1.000
    O61     O    0.95168   0.02079   0.81103   1.000
    O62     O    0.05150   0.97587   0.85587   1.000
    O63     O    0.00440   0.92247   0.87051   1.000
    O64     O    0.50076   0.57670   0.96457   1.000
    O65     O    0.54954   0.52201   0.97653   1.000
    O66     O    0.50033   0.47907   0.77259   1.000
    O67     O    0.55028   0.47777   0.68873   1.000
    O68     O    0.50002   0.52496   0.89525   1.000
    O69     O    0.45047   0.52524   0.97994   1.000
    O70     O    0.04679   0.02557   0.14439   1.000
    O71     O    0.99847   0.02409   0.06099   1.000
    O72     O    0.00000   0.02093   0.72742   1.000
    O73     O    0.04996   0.02222   0.81128   1.000
    O74     O    0.00000   0.97506   0.60476   1.000
    O75     O    0.95047   0.97477   0.52005   1.000
    O76     O    0.54679   0.47443   0.35561   1.000
    O77     O    0.49847   0.47590   0.43900   1.000
    O78     O    0.44973   0.52223   0.31127   1.000
    O79     O    0.49968   0.52093   0.22742   1.000
    O80     O    0.54954   0.47476   0.02005   1.000
    O81     O    0.49999   0.47504   0.10475   1.000
    O82     O    0.95322   0.97444   0.85561   1.000
    O83     O    0.00154   0.97590   0.93901   1.000
    O84     O    0.04801   0.97922   0.18898   1.000
    O85     O    0.99967   0.97907   0.27258   1.000
    O86     O    0.04954   0.02522   0.47995   1.000
    O87     O    0.99998   0.02494   0.39524   1.000
    O88     O    0.45322   0.52557   0.64435   1.000
    O89     O    0.50155   0.52410   0.56095   1.000
    N90     N    0.74834   0.24700   0.08179   1.000
    O91     O    0.68896   0.35051   0.18800   1.000
    O92     O    0.80839   0.14304   0.97651   1.000
    O93     O    0.64020   0.34466   0.12160   1.000
    O94     O    0.85764   0.15068   0.04250   1.000
    N95     N    0.74977   0.75068   0.91627   1.000
    O96     O    0.65540   0.64160   0.87835   1.000
    O97     O    0.81014   0.85220   0.02253   1.000
    O98     O    0.68974   0.64847   0.81002   1.000
    O99     O    0.84447   0.86006   0.95475   1.000
    N100    N    0.77053   0.73114   0.24713   1.000
    O101    O    0.86958   0.83889   0.28679   1.000
    O102    O    0.82141   0.84084   0.35240   1.000
    O103    O    0.66589   0.62900   0.20971   1.000
    O104    O    0.70187   0.63532   0.14080   1.000
    N105    N    0.27052   0.76888   0.25285   1.000
    O106    O    0.20186   0.86468   0.35919   1.000
    O107    O    0.36957   0.66113   0.21320   1.000
    O108    O    0.32140   0.65919   0.14758   1.000
    O109    O    0.16588   0.87102   0.29028   1.000
    N110    N    0.25024   0.24932   0.08368   1.000
    O111    O    0.15554   0.13994   0.04522   1.000
    O112    O    0.34461   0.35841   0.12162   1.000
    O113    O    0.18987   0.14778   0.97744   1.000
    O114    O    0.31027   0.35153   0.18995   1.000
    N115    N    0.75175   0.74696   0.58185   1.000
    O116    O    0.64242   0.65067   0.54254   1.000
    O117    O    0.81110   0.85049   0.68803   1.000
    O118    O    0.69166   0.64302   0.47654   1.000
    O119    O    0.85985   0.84464   0.62163   1.000
    N120    N    0.24976   0.74933   0.58372   1.000
    O121    O    0.15538   0.85842   0.62164   1.000
    O122    O    0.31012   0.64779   0.47745   1.000
    O123    O    0.18973   0.85153   0.68997   1.000
    O124    O    0.34446   0.63994   0.54523   1.000
    N125    N    0.72948   0.23111   0.74713   1.000
    O126    O    0.83412   0.12898   0.70971   1.000
    O127    O    0.79814   0.13532   0.64078   1.000
    O128    O    0.63044   0.33887   0.78679   1.000
    O129    O    0.67860   0.34080   0.85241   1.000
    N130    N    0.22948   0.26886   0.75285   1.000
    O131    O    0.33413   0.37100   0.79029   1.000
    O132    O    0.17862   0.15916   0.64760   1.000
    O133    O    0.29814   0.36467   0.85919   1.000
    O134    O    0.13043   0.16112   0.71320   1.000
    N135    N    0.25166   0.75300   0.91816   1.000
    O136    O    0.31104   0.64950   0.81197   1.000
    O137    O    0.19161   0.85697   0.02347   1.000
    O138    O    0.35980   0.65534   0.87838   1.000
    O139    O    0.14237   0.84931   0.95747   1.000
    N140    N    0.24825   0.25305   0.41815   1.000
    O141    O    0.14014   0.15537   0.37837   1.000
    O142    O    0.35758   0.34933   0.45746   1.000
    O143    O    0.18890   0.14953   0.31197   1.000
    O144    O    0.30834   0.35699   0.52346   1.000
    N145    N    0.75025   0.25066   0.41627   1.000
    O146    O    0.65555   0.36005   0.45476   1.000
    O147    O    0.84462   0.14157   0.37835   1.000
    O148    O    0.68988   0.35220   0.52254   1.000
    O149    O    0.81028   0.14845   0.31000   1.000
loop_
    _geom_bond_atom_site_label_1
    _geom_bond_atom_site_label_2
    _geom_bond_distance
    _geom_bond_site_symmetry_2
    _ccdc_geom_bond_type
    Zr10   O42       1.02272      .   S
    Zr37   O42       1.02272      .   S
    Zr25   O43       0.48754      .   S
    Zr37   O43       0.48754      .   S
    Zr32   O44       0.48742      .   S
    Zr20   O44       0.48742      .   S
    Zr32   O45       1.01931      .   S
    Zr3    O45       1.01931      .   S
    Zr3    O46       1.01789  1_545   S
    Zr39   O46       1.01789      .   S
    Zr27   O47       0.48751      .   S
    Zr39   O47       0.48751      .   S
    Zr36   O48       0.48757      .   S
    Zr24   O48       0.48757      .   S
    Zr36   O49       1.01825      .   S
    Zr5    O49       1.01825      .   S
    Zr7    O50       1.01908      .   S
    Zr35   O50       1.01908      .   S
    Zr23   O51       0.48741      .   S
    Zr35   O51       0.48741      .   S
    Zr40   O52       0.48752      .   S
    Zr28   O52       0.48752      .   S
    Zr40   O53       1.02266      .   S
    Zr14   O53       1.02266  1_565   S
    Zr6    O54       1.02279  1_545   S
    Zr34   O54       1.02279      .   S
    Zr22   O55       0.48739      .   S
    Zr34   O55       0.48739      .   S
    Zr41   O56       0.48732      .   S
    Zr29   O56       0.48732      .   S
    Zr41   O57       1.01950      .   S
    Zr15   O57       1.01950      .   S
    Zr13   O58       1.01827      .   S
    Zr30   O58       1.01827      .   S
    Zr18   O59       0.48751      .   S
    Zr30   O59       0.48751      .   S
    Zr33   O60       0.48748      .   S
    Zr21   O60       0.48748      .   S
    Zr33   O61       1.01457  1_455   S
    Zr9    O61       1.01457  1_565   S
    Zr11   O62       1.01900      .   S
    Zr38   O62       1.01900      .   S
    Zr26   O63       0.48741      .   S
    Zr38   O63       0.48741      .   S
    Zr31   O64       0.48751      .   S
    Zr19   O64       0.48751      .   S
    Zr31   O65       1.02294      .   S
    Zr2    O65       1.02294      .   S
    Zr30   O66       1.04165      .   S
    Zr0    O66       1.04165      .   S
    Zr30   O67       1.01836      .   S
    Zr15   O67       1.01836      .   S
    Zr31   O68       1.03851      .   S
    Zr0    O68       1.03851      .   S
    Zr31   O69       1.02517      .   S
    Zr10   O69       1.02517  1_554   S
    Zr32   O70       1.02371  1_655   S
    Zr1    O70       1.02371      .   S
    Zr32   O71       1.03453      .   S
    Zr16   O71       1.03453  1_566   S
    Zr33   O72       1.04164      .   S
    Zr4    O72       1.04164  1_565   S
    Zr33   O73       1.02192      .   S
    Zr11   O73       1.02192  1_565   S
    Zr34   O74       1.03860      .   S
    Zr4    O74       1.03860      .   S
    Zr34   O75       1.02506  1_455   S
    Zr14   O75       1.02506      .   S
    Zr35   O76       1.02387      .   S
    Zr5    O76       1.02387      .   S
    Zr35   O77       1.03453      .   S
    Zr17   O77       1.03453      .   S
    Zr36   O78       1.01836      .   S
    Zr7    O78       1.01836      .   S
    Zr36   O79       1.04157      .   S
    Zr8    O79       1.04157      .   S
    Zr37   O80       1.02492      .   S
    Zr2    O80       1.02492  1_556   S
    Zr37   O81       1.03885      .   S
    Zr8    O81       1.03885      .   S
    Zr38   O82       1.02373  1_455   S
    Zr9    O82       1.02373      .   S
    Zr38   O83       1.03437      .   S
    Zr16   O83       1.03437  1_655   S
    Zr39   O84       1.01824  1_655   S
    Zr1    O84       1.01824  1_545   S
    Zr39   O85       1.04165      .   S
    Zr12   O85       1.04165  1_545   S
    Zr40   O86       1.02521  1_655   S
    Zr6    O86       1.02521      .   S
    Zr40   O87       1.03860      .   S
    Zr12   O87       1.03860      .   S
    Zr41   O88       1.02429      .   S
    Zr13   O88       1.02429      .   S
    Zr41   O89       1.03377      .   S
    Zr17   O89       1.03377      .   S
    N90    O91       2.30329      .   S
    Zr5    O91       3.26431      .   S
    N90    O92       2.30231  1_554   S
    Zr9    O92       3.25982  1_565   S
    N90    O93       2.31927      .   S
    Zr8    O93       3.32494      .   S
    N90    O94       2.31692      .   S
    Zr16   O94       3.32337  1_566   S
    N95    O96       2.31336      .   S
    Zr0    O96       3.31740      .   S
    N95    O97       2.29335  1_556   S
    Zr3    O97       3.24604  1_545   S
    N95    O98       2.29675      .   S
    Zr15   O98       3.25055      .   S
    N95    O99       2.32022      .   S
    Zr16   O99       3.33015      .   S
    N100   O101      2.34243      .   S
    Zr12   O101      3.37369  1_545   S
    N100   O102      2.30129      .   S
    Zr14   O102      3.26129      .   S
    N100   O103      2.33236      .   S
    Zr8    O103      3.35702      .   S
    N100   O104      2.30450      .   S
    Zr2    O104      3.26279  1_556   S
    N105   O106      2.30446      .   S
    Zr6    O106      3.26274  1_545   S
    N105   O107      2.34251      .   S
    Zr8    O107      3.37403      .   S
    N105   O108      2.30127      .   S
    Zr10   O108      3.26125      .   S
    N105   O109      2.33219      .   S
    Zr12   O109      3.35654  1_645   S
    N110   O111      2.32032      .   S
    Zr16   O111      3.33047  1_666   S
    N110   O112      2.31340      .   S
    Zr8    O112      3.31744      .   S
    N110   O113      2.29328  1_554   S
    Zr11   O113      3.24631  1_565   S
    N110   O114      2.29693      .   S
    Zr7    O114      3.25071      .   S
    N115   O116      2.31712      .   S
    Zr17   O116      3.32380      .   S
    N115   O117      2.30307      .   S
    Zr9    O117      3.26394      .   S
    N115   O118      2.30266      .   S
    Zr5    O118      3.26026      .   S
    N115   O119      2.31923      .   S
    Zr4    O119      3.32477  1_455   S
    N120   O121      2.31337      .   S
    Zr4    O121      3.31745      .   S
    N120   O122      2.29354      .   S
    Zr7    O122      3.24654      .   S
    N120   O123      2.29672      .   S
    Zr11   O123      3.25039      .   S
    N120   O124      2.32028      .   S
    Zr17   O124      3.33035      .   S
    N125   O126      2.33207      .   S
    Zr4    O126      3.35618  1_465   S
    N125   O127      2.30458      .   S
    Zr14   O127      3.26255  1_565   S
    N125   O128      2.34255      .   S
    Zr0    O128      3.37406      .   S
    N125   O129      2.30135      .   S
    Zr2    O129      3.26139      .   S
    N130   O131      2.33238      .   S
    Zr0    O131      3.35703      .   S
    N130   O132      2.30123      .   S
    Zr6    O132      3.26124      .   S
    N130   O133      2.30454      .   S
    Zr10   O133      3.26289  1_554   S
    N130   O134      2.34252      .   S
    Zr4    O134      3.37401  1_565   S
    N135   O136      2.30315      .   S
    Zr13   O136      3.26398      .   S
    N135   O137      2.30259  1_556   S
    Zr1    O137      3.26007  1_545   S
    N135   O138      2.31924      .   S
    Zr0    O138      3.32496      .   S
    N135   O139      2.31688      .   S
    Zr16   O139      3.32316  1_655   S
    N140   O141      2.31935      .   S
    Zr12   O141      3.32509  1_655   S
    N140   O142      2.31708      .   S
    Zr17   O142      3.32371      .   S
    N140   O143      2.30303      .   S
    Zr1    O143      3.26386      .   S
    N140   O144      2.30269      .   S
    Zr13   O144      3.26029      .   S
    N145   O146      2.32026      .   S
    Zr17   O146      3.33032      .   S
    N145   O147      2.31322      .   S
    Zr12   O147      3.31702      .   S
    N145   O148      2.29355      .   S
    Zr15   O148      3.24654      .   S
    N145   O149      2.29696      .   S
    Zr3    O149      3.25069      .   S
