# CIF file generated by openbabel 2.4.90, see http://openbabel.sf.net
data_I
_chemical_name_common ''
_cell_length_a 10.878
_cell_length_b 18.066
_cell_length_c 18.067
_cell_angle_alpha 90.186
_cell_angle_beta 90.212
_cell_angle_gamma 90.427
_space_group_name_H-M_alt 'P 1'
_space_group_name_Hall 'P 1'
loop_
    _symmetry_equiv_pos_as_xyz
    x,y,z
loop_
    _atom_site_label
    _atom_site_type_symbol
    _atom_site_fract_x
    _atom_site_fract_y
    _atom_site_fract_z
    _atom_site_occupancy
    Zr0     Zr   0.93890   0.82940   0.40733   1.000
    Zr1     Zr   0.43647   0.17084   0.58873   1.000
    Zr2     Zr   0.68985   0.91028   0.66911   1.000
    Zr3     Zr   0.18600   0.09042   0.32664   1.000
    Zr4     Zr   0.81552   0.67239   0.90744   1.000
    Zr5     Zr   0.31418   0.32808   0.08921   1.000
    Zr6     Zr   0.06549   0.59072   0.16899   1.000
    Zr7     Zr   0.56356   0.40897   0.82851   1.000
    Zr8     Zr   0.00250   0.63332   0.36543   1.000
    Zr9     Zr   0.49865   0.36660   0.63227   1.000
    Zr10    Zr   0.75362   0.86901   0.86578   1.000
    Zr11    Zr   0.24727   0.13299   0.13089   1.000
    N12     N    0.02045   0.69246   0.66319   1.000
    O13     O    0.03168   0.65933   0.54327   1.000
    O14     O    0.90037   0.78475   0.67863   1.000
    O15     O    0.92157   0.75838   0.75417   1.000
    O16     O    0.93704   0.70922   0.76459   1.000
    O17     O    0.98721   0.73399   0.55440   1.000
    N18     N    0.70724   0.85304   0.50675   1.000
    N19     N    0.22914   0.18922   0.83497   1.000
    O20     O    0.21676   0.15741   0.95415   1.000
    O21     O    0.26357   0.23142   0.94305   1.000
    O22     O    0.32921   0.25522   0.74372   1.000
    O23     O    0.31367   0.20628   0.73283   1.000
    O24     O    0.35074   0.28206   0.81916   1.000
    N25     N    0.79752   0.50968   0.85196   1.000
    N26     N    0.51879   0.30936   0.33486   1.000
    O27     O    0.52990   0.34179   0.45486   1.000
    O28     O    0.41859   0.24341   0.24330   1.000
    O29     O    0.43531   0.29218   0.23288   1.000
    O30     O    0.48449   0.26751   0.44305   1.000
    O31     O    0.39819   0.21651   0.31852   1.000
    N32     N    0.98086   0.33599   0.30679   1.000
    O33     O    0.97023   0.45590   0.33935   1.000
    O34     O    0.10180   0.31967   0.21464   1.000
    O35     O    0.01591   0.44452   0.26514   1.000
    O36     O    0.07971   0.24477   0.24147   1.000
    O37     O    0.06440   0.23412   0.29041   1.000
    N38     N    0.73399   0.80891   0.16297   1.000
    O39     O    0.85439   0.71647   0.17834   1.000
    O40     O    0.72348   0.84257   0.04329   1.000
    O41     O    0.83347   0.74327   0.25385   1.000
    O42     O    0.81756   0.79229   0.26433   1.000
    O43     O    0.76762   0.76783   0.05425   1.000
    N44     N    0.48232   0.66445   0.68978   1.000
    O45     O    0.60367   0.68087   0.78192   1.000
    O46     O    0.51497   0.55587   0.73236   1.000
    O47     O    0.46993   0.54425   0.65758   1.000
    O48     O    0.58305   0.75626   0.75525   1.000
    O49     O    0.56710   0.76658   0.70608   1.000
    N50     N    0.45638   0.99532   0.64388   1.000
    O51     O    0.47630   0.04968   0.62388   1.000
    N52     N    0.27036   0.83665   0.18892   1.000
    O53     O    0.15000   0.82082   0.28140   1.000
    O54     O    0.23512   0.94486   0.23014   1.000
    O55     O    0.17108   0.74540   0.25476   1.000
    O56     O    0.18683   0.73475   0.20565   1.000
    O57     O    0.28032   0.95622   0.15608   1.000
    N58     N    0.77135   0.16517   0.80729   1.000
    O59     O    0.64959   0.18074   0.71482   1.000
    O60     O    0.78365   0.04598   0.83976   1.000
    O61     O    0.68652   0.26660   0.79113   1.000
    O62     O    0.67029   0.25600   0.74207   1.000
    O63     O    0.73777   0.05690   0.76535   1.000
    N64     N    0.20268   0.14678   0.48953   1.000
    N65     N    0.29735   0.49071   0.14501   1.000
    N66     N    0.04798   0.64713   0.00689   1.000
    N67     N    0.95306   0.99137   0.35002   1.000
    N68     N    0.54734   0.35297   0.00436   1.000
    O69     O    0.52641   0.37322   0.94996   1.000
    O70     O    0.72650   0.47984   0.84595   1.000
    O71     O    0.80197   0.55854   0.86924   1.000
    O72     O    0.77768   0.84677   0.47731   1.000
    O73     O    0.94976   0.94277   0.36789   1.000
    O74     O    0.22691   0.52032   0.15115   1.000
    O75     O    0.05223   0.62946   0.05551   1.000
    O76     O    0.27366   0.15315   0.51897   1.000
    O77     O    0.19865   0.12917   0.44067   1.000
    O78     O    0.97730   0.65384   0.97745   1.000
    O79     O    0.30140   0.44186   0.12764   1.000
    O80     O    0.47652   0.34638   0.02667   1.000
    O81     O    0.52737   0.97289   0.65057   1.000
    O82     O    0.02380   0.02082   0.34382   1.000
    O83     O    0.70308   0.87092   0.55545   1.000
loop_
    _geom_bond_atom_site_label_1
    _geom_bond_atom_site_label_2
    _geom_bond_distance
    _geom_bond_site_symmetry_2
    _ccdc_geom_bond_type
    N12    O13       2.24994      .   S
    Zr8    O13       3.25967      .   S
    N12    O14       2.14388  1_455   S
    Zr2    O14       3.23945      .   S
    N12    O15       2.30143  1_455   S
    Zr10   O15       3.38431      .   S
    N12    O16       2.06968  1_455   S
    Zr4    O16       2.97893      .   S
    N12    O17       2.13673  1_455   S
    Zr0    O17       3.21578      .   S
    N19    O20       2.23474      .   S
    Zr11   O20       3.24096  1_554   S
    N19    O21       2.12487      .   S
    Zr5    O21       3.20476  1_554   S
    N19    O22       2.30895      .   S
    Zr9    O22       3.39102      .   S
    N19    O23       2.08743      .   S
    Zr1    O23       3.00016      .   S
    N19    O24       2.14877      .   S
    Zr7    O24       3.24978      .   S
    N26    O27       2.24648      .   S
    Zr9    O27       3.25450      .   S
    N26    O28       2.30188      .   S
    Zr11   O28       3.38647      .   S
    N26    O29       2.07247      .   S
    Zr5    O29       2.98218      .   S
    N26    O30       2.13134      .   S
    Zr1    O30       3.20561      .   S
    N26    O31       2.14097      .   S
    Zr3    O31       3.23486      .   S
    N32    O33       2.24694      .   S
    Zr8    O33       3.25439  1_455   S
    N32    O34       2.14663  1_655   S
    Zr5    O34       3.24528      .   S
    N32    O35       2.13463  1_655   S
    Zr6    O35       3.20934      .   S
    N32    O36       2.29961  1_655   S
    Zr11   O36       3.38334      .   S
    N32    O37       2.07926  1_655   S
    Zr3    O37       2.99568      .   S
    N38    O39       2.14811      .   S
    Zr6    O39       3.24665  1_455   S
    N38    O40       2.25085      .   S
    Zr10   O40       3.26137  1_556   S
    N38    O41       2.30040      .   S
    Zr8    O41       3.38275  1_455   S
    N38    O42       2.06525      .   S
    Zr0    O42       2.96929      .   S
    N38    O43       2.13133      .   S
    Zr4    O43       3.20532  1_556   S
    N44    O45       2.13937      .   S
    Zr4    O45       3.23184      .   S
    N44    O46       2.14098      .   S
    Zr7    O46       3.22246      .   S
    N44    O47       2.24922      .   S
    Zr9    O47       3.25775      .   S
    N44    O48       2.30245      .   S
    Zr10   O48       3.38673      .   S
    N44    O49       2.07618      .   S
    Zr2    O49       2.98914      .   S
    N50    O51       1.06863  1_565   S
    Zr1    O51       2.32448      .   S
    N52    O53       2.14510      .   S
    Zr0    O53       3.24270  1_655   S
    N52    O54       2.12771      .   S
    Zr3    O54       3.19977  1_545   S
    N52    O55       2.30108      .   S
    Zr8    O55       3.38499      .   S
    N52    O56       2.07053      .   S
    Zr6    O56       2.98035      .   S
    N52    O57       2.24397      .   S
    Zr11   O57       3.24967  1_545   S
    N58    O59       2.14869      .   S
    Zr1    O59       3.24783      .   S
    N58    O60       2.23843      .   S
    Zr10   O60       3.24715  1_565   S
    N58    O61       2.07874      .   S
    Zr7    O61       2.98466      .   S
    N58    O62       2.30643      .   S
    Zr9    O62       3.38647      .   S
    N58    O63       2.12393      .   S
    Zr2    O63       3.20216  1_565   S
    N68    O69       1.07404  1_554   S
    Zr7    O69       2.32531      .   S
    N25    O70       0.94449      .   S
    Zr7    O70       2.19979      .   S
    N25    O71       0.93620      .   S
    Zr4    O71       2.17117      .   S
    Zr0    O72       2.18977      .   S
    N18    O72       0.94159      .   S
    Zr0    O73       2.17312      .   S
    N67    O73       0.93694      .   S
    Zr6    O74       2.19995      .   S
    N65    O74       0.94446      .   S
    Zr6    O75       2.17327      .   S
    N66    O75       0.93666      .   S
    Zr1    O76       2.19081      .   S
    N64    O76       0.94210      .   S
    N64    O77       0.93811      .   S
    Zr3    O77       2.17716      .   S
    Zr4    O78       2.19188      .   S
    N66    O78       0.94215  1_454   S
    Zr5    O79       2.17329      .   S
    N65    O79       0.93695      .   S
    Zr5    O80       2.12444      .   S
    N68    O80       0.87824      .   S
    N50    O81       0.88290      .   S
    Zr2    O81       2.13147      .   S
    Zr3    O82       2.18262      .   S
    N67    O82       0.93957  1_665   S
    Zr2    O83       2.17659      .   S
    N18    O83       0.93777      .   S
