# CIF file generated by openbabel 2.4.90, see http://openbabel.sf.net
data_I
_chemical_name_common ''
_cell_length_a 24.165
_cell_length_b 15.381
_cell_length_c 17.043
_cell_angle_alpha 89.908
_cell_angle_beta 90.006
_cell_angle_gamma 91.729
_space_group_name_H-M_alt 'P 1'
_space_group_name_Hall 'P 1'
loop_
    _symmetry_equiv_pos_as_xyz
    x,y,z
loop_
    _atom_site_label
    _atom_site_type_symbol
    _atom_site_fract_x
    _atom_site_fract_y
    _atom_site_fract_z
    _atom_site_occupancy
    Zr0     Zr   0.15646   0.29776   0.85582   1.000
    Zr1     Zr   0.65646   0.29779   0.85583   1.000
    Zr2     Zr   0.28657   0.22687   0.80502   1.000
    Zr3     Zr   0.78655   0.22686   0.80503   1.000
    Zr4     Zr   0.37916   0.00000   0.70860   1.000
    Zr5     Zr   0.87915   0.00000   0.70860   1.000
    Zr6     Zr   0.09342   0.20238   0.35552   1.000
    Zr7     Zr   0.59342   0.20238   0.35550   1.000
    Zr8     Zr   0.46346   0.27347   0.30518   1.000
    Zr9     Zr   0.96344   0.27345   0.30519   1.000
    Zr10    Zr   0.37064   0.49246   0.20946   1.000
    Zr11    Zr   0.87076   0.49233   0.20936   1.000
    Zr12    Zr   0.34355   0.70223   0.14418   1.000
    Zr13    Zr   0.84354   0.70226   0.14418   1.000
    Zr14    Zr   0.21346   0.77314   0.19497   1.000
    Zr15    Zr   0.71344   0.77314   0.19498   1.000
    Zr16    Zr   0.12084   0.99195   0.29140   1.000
    Zr17    Zr   0.62084   0.99192   0.29138   1.000
    Zr18    Zr   0.40658   0.79763   0.64449   1.000
    Zr19    Zr   0.90658   0.79763   0.64448   1.000
    Zr20    Zr   0.03656   0.72655   0.69481   1.000
    Zr21    Zr   0.53655   0.72653   0.69481   1.000
    Zr22    Zr   0.12926   0.50765   0.79062   1.000
    Zr23    Zr   0.62937   0.50752   0.79050   1.000
    N24     N    0.98337   0.27760   0.63744   1.000
    O25     O    0.05168   0.30404   0.73096   1.000
    O26     O    0.04488   0.35651   0.71466   1.000
    O27     O    0.92741   0.17507   0.68239   1.000
    O28     O    0.90426   0.23179   0.70650   1.000
    O29     O    0.02267   0.25986   0.51423   1.000
    O30     O    0.96745   0.27014   0.50334   1.000
    O31     O    0.90366   0.26757   0.70415   1.000
    O32     O    0.04508   0.37657   0.68747   1.000
    N33     N    0.76679   0.22222   0.13754   1.000
    O34     O    0.78262   0.22981   0.00333   1.000
    O35     O    0.72739   0.24002   0.01437   1.000
    O36     O    0.84646   0.23247   0.20421   1.000
    O37     O    0.70526   0.12300   0.18809   1.000
    O38     O    0.82264   0.32295   0.18265   1.000
    O39     O    0.84581   0.26823   0.20661   1.000
    O40     O    0.69837   0.19597   0.23090   1.000
    O41     O    0.70522   0.14336   0.21487   1.000
    N42     N    0.10200   0.02933   0.63970   1.000
    O43     O    0.10039   0.09481   0.52361   1.000
    O44     O    0.02422   0.92900   0.65603   1.000
    O45     O    0.05672   0.91123   0.66862   1.000
    O46     O    0.17931   0.10662   0.70639   1.000
    O47     O    0.12541   0.13483   0.72897   1.000
    O48     O    0.11353   0.00824   0.49816   1.000
    O49     O    0.01383   0.01467   0.67365   1.000
    N50     N    0.60214   0.02933   0.63967   1.000
    O51     O    0.67937   0.10661   0.70637   1.000
    O52     O    0.51390   0.01466   0.67364   1.000
    O53     O    0.62547   0.13485   0.72894   1.000
    O54     O    0.61360   0.00823   0.49813   1.000
    O55     O    0.60046   0.09480   0.52346   1.000
    O56     O    0.52429   0.92900   0.65602   1.000
    O57     O    0.55678   0.91122   0.66860   1.000
    N58     N    0.14777   0.47041   0.13959   1.000
    O59     O    0.13637   0.49145   0.99773   1.000
    O60     O    0.14946   0.40507   0.02368   1.000
    O61     O    0.07049   0.39404   0.20690   1.000
    O62     O    0.12439   0.36514   0.22867   1.000
    O63     O    0.23597   0.48237   0.17378   1.000
    O64     O    0.22572   0.57083   0.15587   1.000
    O65     O    0.19320   0.58856   0.16857   1.000
    N66     N    0.01664   0.72240   0.36254   1.000
    O67     O    0.97734   0.74014   0.48576   1.000
    O68     O    0.09635   0.73243   0.29584   1.000
    O69     O    0.03255   0.72985   0.49665   1.000
    O70     O    0.95498   0.62338   0.31250   1.000
    O71     O    0.94832   0.69596   0.26903   1.000
    O72     O    0.95513   0.64348   0.28533   1.000
    O73     O    0.07260   0.82292   0.31760   1.000
    O74     O    0.09575   0.76821   0.29349   1.000
    N75     N    0.48346   0.27751   0.63740   1.000
    O76     O    0.54537   0.37630   0.68733   1.000
    O77     O    0.46750   0.27010   0.50331   1.000
    O78     O    0.52271   0.25981   0.51420   1.000
    O79     O    0.40373   0.26754   0.70413   1.000
    O80     O    0.55170   0.30398   0.73096   1.000
    O81     O    0.54493   0.35642   0.71463   1.000
    O82     O    0.42747   0.17504   0.68237   1.000
    O83     O    0.40432   0.23175   0.70648   1.000
    N84     N    0.85223   0.52960   0.86039   1.000
    O85     O    0.85054   0.59494   0.97631   1.000
    O86     O    0.76403   0.51763   0.82620   1.000
    O87     O    0.92951   0.60596   0.79309   1.000
    O88     O    0.86363   0.50855   0.00224   1.000
    O89     O    0.77428   0.42918   0.84412   1.000
    O90     O    0.80681   0.41145   0.83142   1.000
    O91     O    0.87562   0.63487   0.77132   1.000
    N92     N    0.26680   0.22225   0.13761   1.000
    O93     O    0.22740   0.24003   0.01440   1.000
    O94     O    0.34647   0.23252   0.20424   1.000
    O95     O    0.32261   0.32303   0.18271   1.000
    O96     O    0.34582   0.26828   0.20664   1.000
    O97     O    0.28264   0.22983   0.00336   1.000
    O98     O    0.20527   0.12303   0.18813   1.000
    O99     O    0.19837   0.19599   0.23108   1.000
    O100    O    0.20523   0.14338   0.21505   1.000
    N101    N    0.35221   0.52959   0.86041   1.000
    O102    O    0.36359   0.50859   0.00229   1.000
    O103    O    0.35053   0.59494   0.97632   1.000
    O104    O    0.26398   0.51766   0.82623   1.000
    O105    O    0.27427   0.42917   0.84412   1.000
    O106    O    0.30680   0.41145   0.83142   1.000
    O107    O    0.37560   0.63487   0.77134   1.000
    O108    O    0.42949   0.60593   0.79309   1.000
    N109    N    0.64780   0.47042   0.13957   1.000
    O110    O    0.63642   0.49141   0.99768   1.000
    O111    O    0.64947   0.40507   0.02368   1.000
    O112    O    0.73603   0.48234   0.17375   1.000
    O113    O    0.72573   0.57084   0.15587   1.000
    O114    O    0.69321   0.58856   0.16857   1.000
    O115    O    0.62440   0.36514   0.22865   1.000
    O116    O    0.57051   0.39408   0.20690   1.000
    N117    N    0.23321   0.77778   0.86240   1.000
    O118    O    0.27261   0.75999   0.98561   1.000
    O119    O    0.30163   0.80403   0.76892   1.000
    O120    O    0.29478   0.85462   0.78495   1.000
    O121    O    0.29474   0.87498   0.81188   1.000
    O122    O    0.15354   0.76753   0.79576   1.000
    O123    O    0.21738   0.77019   0.99664   1.000
    O124    O    0.17737   0.67704   0.81731   1.000
    O125    O    0.15419   0.73176   0.79336   1.000
    N126    N    0.89786   0.96992   0.36028   1.000
    O127    O    0.97571   0.07063   0.34394   1.000
    O128    O    0.94321   0.08840   0.33136   1.000
    O129    O    0.87452   0.86481   0.27101   1.000
    O130    O    0.82062   0.89300   0.29361   1.000
    O131    O    0.98610   0.98202   0.32634   1.000
    O132    O    0.88640   0.98937   0.50184   1.000
    O133    O    0.89954   0.90482   0.47636   1.000
    N134    N    0.73319   0.77775   0.86235   1.000
    O135    O    0.67739   0.67696   0.81726   1.000
    O136    O    0.65418   0.73171   0.79334   1.000
    O137    O    0.77260   0.75998   0.98557   1.000
    O138    O    0.65352   0.76748   0.79573   1.000
    O139    O    0.80163   0.80401   0.76889   1.000
    O140    O    0.79477   0.85460   0.78492   1.000
    O141    O    0.79473   0.87496   0.81185   1.000
    O142    O    0.71736   0.77017   0.99642   1.000
    N143    N    0.39786   0.96993   0.36028   1.000
    O144    O    0.32063   0.89301   0.29361   1.000
    O145    O    0.48609   0.98201   0.32633   1.000
    O146    O    0.38640   0.98938   0.50184   1.000
    O147    O    0.47571   0.07063   0.34395   1.000
    O148    O    0.44322   0.08840   0.33137   1.000
    O149    O    0.39954   0.90483   0.47639   1.000
    O150    O    0.37452   0.86479   0.27104   1.000
    N151    N    0.51654   0.72248   0.36258   1.000
    O152    O    0.45466   0.62366   0.31264   1.000
    O153    O    0.44830   0.69601   0.26903   1.000
    O154    O    0.45507   0.64357   0.28535   1.000
    O155    O    0.47729   0.74018   0.48579   1.000
    O156    O    0.53250   0.72989   0.49667   1.000
    O157    O    0.57253   0.82294   0.31761   1.000
    O158    O    0.59568   0.76824   0.29351   1.000
    O159    O    0.59628   0.73246   0.29585   1.000
loop_
    _geom_bond_atom_site_label_1
    _geom_bond_atom_site_label_2
    _geom_bond_distance
    _geom_bond_site_symmetry_2
    _ccdc_geom_bond_type
    N24    O25       2.32200  1_655   S
    Zr0    O25       3.31085      .   S
    N24    O26       2.30441  1_655   S
    Zr22   O26       3.31071      .   S
    N24    O27       2.18402      .   S
    Zr5    O27       2.93554      .   S
    N24    O28       2.33515      .   S
    Zr3    O28       3.30230      .   S
    N24    O29       2.32456  1_655   S
    Zr6    O29       3.33478      .   S
    N24    O30       2.32011      .   S
    Zr9    O30       3.37872      .   S
    N24    O31       2.23797      .   S
    Zr3    O31       3.35391      .   S
    N24    O32       2.26599  1_655   S
    Zr22   O32       3.32517      .   S
    N33    O34       2.32136      .   S
    Zr3    O34       3.38141  1_556   S
    N33    O35       2.32425      .   S
    Zr1    O35       3.33333  1_556   S
    N33    O36       2.23698      .   S
    Zr9    O36       3.35332      .   S
    N33    O37       2.26734      .   S
    Zr17   O37       3.32671  1_565   S
    N33    O38       2.16569      .   S
    Zr11   O38       2.85791      .   S
    N33    O39       2.33514      .   S
    Zr9    O39       3.30079      .   S
    N33    O40       2.32089      .   S
    Zr7    O40       3.31167      .   S
    N33    O41       2.30394      .   S
    Zr17   O41       3.31478  1_565   S
    N42    O43       2.21959      .   S
    Zr6    O43       3.31276      .   S
    N42    O44       2.41138  1_545   S
    Zr19   O44       3.44346  1_655   S
    N42    O45       2.14872  1_545   S
    Zr20   O45       2.90133      .   S
    N42    O46       2.46266      .   S
    Zr2    O46       3.56150      .   S
    N42    O47       2.28469      .   S
    Zr0    O47       3.37953      .   S
    N42    O48       2.45165      .   S
    Zr16   O48       3.53788  1_565   S
    N42    O49       2.21268      .   S
    Zr5    O49       3.30948  1_655   S
    N50    O51       2.46142      .   S
    Zr3    O51       3.56023      .   S
    N50    O52       2.21430      .   S
    Zr4    O52       3.31107      .   S
    N50    O53       2.28459      .   S
    Zr1    O53       3.37965      .   S
    N50    O54       2.45139      .   S
    Zr17   O54       3.53765  1_565   S
    N50    O55       2.22139      .   S
    Zr7    O55       3.31101      .   S
    N50    O56       2.41274  1_545   S
    Zr18   O56       3.44488      .   S
    N50    O57       2.14972  1_545   S
    Zr21   O57       2.90183      .   S
    N58    O59       2.45547  1_554   S
    Zr22   O59       3.54263      .   S
    N58    O60       2.21883      .   S
    Zr0    O60       3.31201  1_556   S
    N58    O61       2.45898      .   S
    Zr9    O61       3.55532  1_655   S
    N58    O62       2.27661      .   S
    Zr6    O62       3.37203      .   S
    N58    O63       2.21188      .   S
    Zr10   O63       3.30952      .   S
    N58    O64       2.41582      .   S
    Zr12   O64       3.44717      .   S
    N58    O65       2.15257      .   S
    Zr14   O65       2.90226      .   S
    N66    O67       2.32475  1_455   S
    Zr19   O67       3.33505      .   S
    N66    O68       2.23780      .   S
    Zr14   O68       3.35373      .   S
    N66    O69       2.32018      .   S
    Zr20   O69       3.37890      .   S
    N66    O70       2.26578  1_455   S
    Zr11   O70       3.32537      .   S
    N66    O71       2.32209  1_455   S
    Zr13   O71       3.31085      .   S
    N66    O72       2.30450  1_455   S
    Zr11   O72       3.31065      .   S
    N66    O73       2.16232      .   S
    Zr16   O73       2.85162      .   S
    N66    O74       2.33507      .   S
    Zr14   O74       3.30207      .   S
    N75    O76       2.26661      .   S
    Zr23   O76       3.32410      .   S
    N75    O77       2.31997      .   S
    Zr8    O77       3.37855      .   S
    N75    O78       2.32392      .   S
    Zr7    O78       3.33391      .   S
    N75    O79       2.23868      .   S
    Zr2    O79       3.35472      .   S
    N75    O80       2.32135      .   S
    Zr1    O80       3.31035      .   S
    N75    O81       2.30387      .   S
    Zr23   O81       3.31060      .   S
    N75    O82       2.18405      .   S
    Zr4    O82       2.93553      .   S
    N75    O83       2.33568      .   S
    Zr2    O83       3.30317      .   S
    N84    O85       2.21896      .   S
    Zr13   O85       3.31218  1_554   S
    N84    O86       2.21182      .   S
    Zr23   O86       3.30947      .   S
    N84    O87       2.45892      .   S
    Zr20   O87       3.55523  1_455   S
    N84    O88       2.45521  1_556   S
    Zr11   O88       3.54288      .   S
    N84    O89       2.41580      .   S
    Zr1    O89       3.44715      .   S
    N84    O90       2.15258      .   S
    Zr3    O90       2.90228      .   S
    N84    O91       2.27653      .   S
    Zr19   O91       3.37196      .   S
    N92    O93       2.32470      .   S
    Zr0    O93       3.33378  1_556   S
    N92    O94       2.23675      .   S
    Zr8    O94       3.35297      .   S
    N92    O95       2.16558      .   S
    Zr10   O95       2.85780      .   S
    N92    O96       2.33490      .   S
    Zr8    O96       3.30060      .   S
    N92    O97       2.32194      .   S
    Zr2    O97       3.38209  1_556   S
    N92    O98       2.26726      .   S
    Zr16   O98       3.32659  1_565   S
    N92    O99       2.32247      .   S
    Zr6    O99       3.31007      .   S
    N92    O100      2.30524      .   S
    Zr16   O100      3.31367  1_565   S
    N101   O102      2.45562  1_556   S
    Zr10   O102      3.54353      .   S
    N101   O103      2.21878      .   S
    Zr12   O103      3.31187  1_554   S
    N101   O104      2.21246      .   S
    Zr22   O104      3.31053      .   S
    N101   O105      2.41566      .   S
    Zr0    O105      3.44686      .   S
    N101   O106      2.15241      .   S
    Zr2    O106      2.90205      .   S
    N101   O107      2.27661      .   S
    Zr18   O107      3.37206      .   S
    N101   O108      2.45894      .   S
    Zr21   O108      3.55533      .   S
    N109   O110      2.45569  1_554   S
    Zr23   O110      3.54377      .   S
    N109   O111      2.21861      .   S
    Zr1    O111      3.31161  1_556   S
    N109   O112      2.21265      .   S
    Zr11   O112      3.31084      .   S
    N109   O113      2.41568      .   S
    Zr13   O113      3.44687      .   S
    N109   O114      2.15239      .   S
    Zr15   O114      2.90202      .   S
    N109   O115      2.27664      .   S
    Zr7    O115      3.37212      .   S
    N109   O116      2.45903      .   S
    Zr8    O116      3.55540      .   S
    N117   O118      2.32477      .   S
    Zr12   O118      3.33386  1_554   S
    N117   O119      2.32237      .   S
    Zr18   O119      3.30986      .   S
    N117   O120      2.28962      .   S
    Zr4    O120      3.25072  1_545   S
    N117   O121      2.24707      .   S
    Zr4    O121      3.27277  1_545   S
    N117   O122      2.23670      .   S
    Zr20   O122      3.35295      .   S
    N117   O123      2.32189      .   S
    Zr14   O123      3.38187  1_554   S
    N117   O124      2.16551      .   S
    Zr22   O124      2.85783      .   S
    N117   O125      2.33484      .   S
    Zr20   O125      3.30048      .   S
    N126   O127      2.41628  1_565   S
    Zr6    O127      3.44817  1_455   S
    N126   O128      2.15435  1_565   S
    Zr9    O128      2.90715      .   S
    N126   O129      2.28007      .   S
    Zr13   O129      3.37476      .   S
    N126   O130      2.45864      .   S
    Zr15   O130      3.55734      .   S
    N126   O131      2.21174      .   S
    Zr16   O131      3.30912  1_455   S
    N126   O132      2.44831      .   S
    Zr5    O132      3.53253  1_545   S
    N126   O133      2.21680      .   S
    Zr19   O133      3.31041      .   S
    N134   O135      2.16551      .   S
    Zr23   O135      2.85789      .   S
    N134   O136      2.33467      .   S
    Zr21   O136      3.30041      .   S
    N134   O137      2.32492      .   S
    Zr13   O137      3.33423  1_554   S
    N134   O138      2.23655      .   S
    Zr21   O138      3.35272      .   S
    N134   O139      2.32226      .   S
    Zr19   O139      3.30987      .   S
    N134   O140      2.28953      .   S
    Zr5    O140      3.25076  1_545   S
    N134   O141      2.24705      .   S
    Zr5    O141      3.27278  1_545   S
    N134   O142      2.31900      .   S
    Zr15   O142      3.38585  1_554   S
    N143   O144      2.45856      .   S
    Zr14   O144      3.55703      .   S
    N143   O145      2.21171      .   S
    Zr17   O145      3.30909      .   S
    N143   O146      2.44836      .   S
    Zr4    O146      3.53240  1_545   S
    N143   O147      2.41632  1_565   S
    Zr7    O147      3.44825      .   S
    N143   O148      2.15443  1_565   S
    Zr8    O148      2.90741      .   S
    N143   O149      2.21719      .   S
    Zr18   O149      3.31017      .   S
    N143   O150      2.28015      .   S
    Zr12   O150      3.37502      .   S
    N151   O152      2.26660      .   S
    Zr10   O152      3.32427      .   S
    N151   O153      2.32126      .   S
    Zr12   O153      3.31014      .   S
    N151   O154      2.30393      .   S
    Zr10   O154      3.31069      .   S
    N151   O155      2.32407      .   S
    Zr18   O155      3.33407      .   S
    N151   O156      2.32006      .   S
    Zr21   O156      3.37866      .   S
    N151   O157      2.16234      .   S
    Zr17   O157      2.85150      .   S
    N151   O158      2.33559      .   S
    Zr15   O158      3.30305      .   S
    N151   O159      2.23859      .   S
    Zr15   O159      3.35457      .   S
