# CIF file generated by openbabel 2.4.90, see http://openbabel.sf.net
data_I
_chemical_name_common ''
_cell_length_a 18.655
_cell_length_b 17.343
_cell_length_c 20.282
_cell_angle_alpha 89.999
_cell_angle_beta 90.009
_cell_angle_gamma 98.643
_space_group_name_H-M_alt 'P 1'
_space_group_name_Hall 'P 1'
loop_
    _symmetry_equiv_pos_as_xyz
    x,y,z
loop_
    _atom_site_label
    _atom_site_type_symbol
    _atom_site_fract_x
    _atom_site_fract_y
    _atom_site_fract_z
    _atom_site_occupancy
    Zn0     Zn   0.53148   0.27338   0.81630   1.000
    Zn1     Zn   0.21856   0.22660   0.31636   1.000
    Zn2     Zn   0.71856   0.22661   0.31636   1.000
    Zn3     Zn   0.46853   0.72664   0.18362   1.000
    Zn4     Zn   0.96854   0.72664   0.18362   1.000
    Zn5     Zn   0.28145   0.77341   0.68362   1.000
    Zn6     Zn   0.78146   0.77341   0.68362   1.000
    Zn7     Zn   0.03148   0.27337   0.81630   1.000
