# CIF file generated by openbabel 2.4.90, see http://openbabel.sf.net
data_I
_chemical_name_common ''
_cell_length_a 18.655
_cell_length_b 17.343
_cell_length_c 20.282
_cell_angle_alpha 89.999
_cell_angle_beta 90.009
_cell_angle_gamma 98.643
_space_group_name_H-M_alt 'P 1'
_space_group_name_Hall 'P 1'
loop_
    _symmetry_equiv_pos_as_xyz
    x,y,z
loop_
    _atom_site_label
    _atom_site_type_symbol
    _atom_site_fract_x
    _atom_site_fract_y
    _atom_site_fract_z
    _atom_site_occupancy
    Zr0     Zr   0.03148   0.27337   0.81630   1.000
    Zr1     Zr   0.53148   0.27338   0.81630   1.000
    Zr2     Zr   0.21856   0.22660   0.31636   1.000
    Zr3     Zr   0.71856   0.22661   0.31636   1.000
    Zr4     Zr   0.46853   0.72664   0.18362   1.000
    Zr5     Zr   0.96854   0.72664   0.18362   1.000
    Zr6     Zr   0.28145   0.77341   0.68362   1.000
    Zr7     Zr   0.78146   0.77341   0.68362   1.000
    N8      N    0.39117   0.21468   0.58621   1.000
    O9      O    0.23092   0.23349   0.68593   1.000
    O10     O    0.54267   0.22041   0.47389   1.000
    N11     N    0.00000   0.00001   0.99997   1.000
    O12     O    0.24786   0.11246   0.90609   1.000
    O13     O    0.13428   0.90902   0.85421   1.000
    O14     O    0.75215   0.88756   0.09385   1.000
    O15     O    0.86573   0.09099   0.14576   1.000
    N16     N    0.75000   0.50001   0.49999   1.000
    O17     O    0.88430   0.40901   0.64575   1.000
    O18     O    0.50215   0.38754   0.40612   1.000
    O19     O    0.61570   0.59100   0.35421   1.000
    O20     O    0.99785   0.61247   0.59386   1.000
    N21     N    0.25000   0.50001   0.49998   1.000
    O22     O    0.38430   0.40901   0.64575   1.000
    O23     O    0.00216   0.38754   0.40612   1.000
    O24     O    0.11571   0.59100   0.35421   1.000
    O25     O    0.49785   0.61247   0.59386   1.000
    N26     N    0.85895   0.28520   0.08616   1.000
    O27     O    0.01917   0.26644   0.18592   1.000
    O28     O    0.70742   0.27950   0.97384   1.000
    N29     N    0.35895   0.28520   0.08617   1.000
    O30     O    0.51917   0.26644   0.18593   1.000
    O31     O    0.20742   0.27950   0.97385   1.000
    N32     N    0.89117   0.21468   0.58598   1.000
    O33     O    0.73092   0.23349   0.68581   1.000
    O34     O    0.04267   0.22041   0.47377   1.000
    N35     N    0.50000   0.00001   0.99999   1.000
    O36     O    0.74786   0.11246   0.90610   1.000
    O37     O    0.63428   0.90902   0.85421   1.000
    O38     O    0.25215   0.88756   0.09386   1.000
    O39     O    0.36573   0.09099   0.14576   1.000
    N40     N    0.14092   0.71481   0.91378   1.000
    O41     O    0.98077   0.73357   0.81404   1.000
    O42     O    0.29251   0.72051   0.02610   1.000
    N43     N    0.64106   0.71481   0.91378   1.000
    O44     O    0.48084   0.73357   0.81404   1.000
    O45     O    0.79258   0.72051   0.02610   1.000
    N46     N    0.60884   0.78534   0.41375   1.000
    O47     O    0.76909   0.76653   0.31401   1.000
    O48     O    0.45734   0.77961   0.52608   1.000
    N49     N    0.10884   0.78534   0.41375   1.000
    O50     O    0.26908   0.76653   0.31401   1.000
    O51     O    0.95734   0.77961   0.52608   1.000
loop_
    _geom_bond_atom_site_label_1
    _geom_bond_atom_site_label_2
    _geom_bond_distance
    _geom_bond_site_symmetry_2
    _ccdc_geom_bond_type
    N8     O9        3.66451      .   S
    Zr0    O9        4.69996      .   S
    N8     O10       3.62010      .   S
    Zr3    O10       4.56985      .   S
    N11    O12       5.10888      .   S
    Zr1    O12       5.88770      .   S
    N11    O13       4.32383  1_545   S
    Zr6    O13       5.19462      .   S
    N11    O14       5.10886  1_446   S
    Zr4    O14       5.88742      .   S
    N11    O15       4.32405  1_456   S
    Zr3    O15       5.19480      .   S
    N16    O17       4.32356      .   S
    Zr0    O17       5.19378  1_455   S
    N16    O18       5.10817      .   S
    Zr2    O18       5.88669      .   S
    N16    O19       4.32367      .   S
    Zr4    O19       5.19428      .   S
    N16    O20       5.10822      .   S
    Zr6    O20       5.88681  1_455   S
    N21    O22       4.32361      .   S
    Zr1    O22       5.19385      .   S
    N21    O23       5.10810      .   S
    Zr3    O23       5.88663  1_655   S
    N21    O24       4.32362      .   S
    Zr5    O24       5.19422  1_655   S
    N21    O25       5.10828      .   S
    Zr7    O25       5.88686      .   S
    N26    O27       3.66382  1_655   S
    Zr2    O27       4.69906      .   S
    N26    O28       3.61979  1_554   S
    Zr1    O28       4.57009      .   S
    N29    O30       3.66376      .   S
    Zr3    O30       4.69902      .   S
    N29    O31       3.61991  1_554   S
    Zr0    O31       4.57027      .   S
    N32    O33       3.66578      .   S
    Zr1    O33       4.70122      .   S
    N32    O34       3.61859  1_655   S
    Zr2    O34       4.56814      .   S
    N35    O36       5.10893      .   S
    Zr0    O36       5.88765  1_455   S
    N35    O37       4.32397  1_545   S
    Zr7    O37       5.19476      .   S
    N35    O38       5.10878  1_546   S
    Zr5    O38       5.88726  1_655   S
    N35    O39       4.32395  1_556   S
    Zr2    O39       5.19471      .   S
    N40    O41       3.66249  1_455   S
    Zr7    O41       4.69762      .   S
    N40    O42       3.62090  1_556   S
    Zr4    O42       4.57081      .   S
    N43    O44       3.66360      .   S
    Zr6    O44       4.69873      .   S
    N43    O45       3.61990  1_556   S
    Zr5    O45       4.56994      .   S
    N46    O47       3.66485      .   S
    Zr5    O47       4.70030      .   S
    N46    O48       3.62014      .   S
    Zr6    O48       4.56983      .   S
    N49    O50       3.66467      .   S
    Zr4    O50       4.70033      .   S
    N49    O51       3.62015  1_455   S
    Zr7    O51       4.56984      .   S
