# CIF file generated by openbabel 2.4.90, see http://openbabel.sf.net
data_I
_chemical_name_common ''
_cell_length_a 18.655
_cell_length_b 17.343
_cell_length_c 20.282
_cell_angle_alpha 89.999
_cell_angle_beta 90.009
_cell_angle_gamma 98.643
_space_group_name_H-M_alt 'P 1'
_space_group_name_Hall 'P 1'
loop_
    _symmetry_equiv_pos_as_xyz
    x,y,z
loop_
    _atom_site_label
    _atom_site_type_symbol
    _atom_site_fract_x
    _atom_site_fract_y
    _atom_site_fract_z
    _atom_site_occupancy
    N0      N    0.39117   0.21468   0.58621   1.000
    N1      N    0.00000   0.00001   0.99997   1.000
    N2      N    0.75000   0.50001   0.49999   1.000
    N3      N    0.25000   0.50001   0.49998   1.000
    N4      N    0.85895   0.28520   0.08616   1.000
    N5      N    0.35895   0.28520   0.08617   1.000
    N6      N    0.89117   0.21468   0.58598   1.000
    N7      N    0.50000   0.00001   0.99999   1.000
    N8      N    0.14092   0.71481   0.91378   1.000
    N9      N    0.64106   0.71481   0.91378   1.000
    N10     N    0.60884   0.78534   0.41375   1.000
    N11     N    0.10884   0.78534   0.41375   1.000
    Zr12    Zr   0.78146   0.77341   0.68362   1.000
    O13     O    0.86940   0.77651   0.60485   1.000
    O14     O    0.88111   0.75349   0.74883   1.000
    O15     O    0.63966   0.69294   0.63874   1.000
    O16     O    0.70787   0.84122   0.76892   1.000
    Zr17    Zr   0.03148   0.27337   0.81630   1.000
    O18     O    0.95789   0.34119   0.73102   1.000
    O19     O    0.11945   0.27644   0.89508   1.000
    O20     O    0.88967   0.19292   0.86120   1.000
    O21     O    0.13120   0.25343   0.75112   1.000
    Zr22    Zr   0.53148   0.27338   0.81630   1.000
    O23     O    0.61945   0.27644   0.89507   1.000
    O24     O    0.63120   0.25343   0.75106   1.000
    O25     O    0.38967   0.19292   0.86120   1.000
    O26     O    0.45789   0.34119   0.73102   1.000
    Zr27    Zr   0.21856   0.22660   0.31636   1.000
    O28     O    0.11886   0.24652   0.25114   1.000
    O29     O    0.13061   0.22351   0.39507   1.000
    O30     O    0.36036   0.30707   0.36124   1.000
    O31     O    0.29214   0.15880   0.23106   1.000
    Zr32    Zr   0.71856   0.22661   0.31636   1.000
    O33     O    0.86036   0.30707   0.36124   1.000
    O34     O    0.79215   0.15880   0.23106   1.000
    O35     O    0.61887   0.24652   0.25114   1.000
    O36     O    0.63062   0.22351   0.39512   1.000
    Zr37    Zr   0.46853   0.72664   0.18362   1.000
    O38     O    0.36881   0.74658   0.24882   1.000
    O39     O    0.61034   0.80710   0.13874   1.000
    O40     O    0.54212   0.65882   0.26892   1.000
    O41     O    0.38052   0.72357   0.10486   1.000
    Zr42    Zr   0.96854   0.72664   0.18362   1.000
    O43     O    0.86881   0.74658   0.24881   1.000
    O44     O    0.88056   0.72358   0.10486   1.000
    O45     O    0.04212   0.65882   0.26892   1.000
    O46     O    0.11034   0.80710   0.13874   1.000
    Zr47    Zr   0.28145   0.77341   0.68362   1.000
    O48     O    0.36940   0.77651   0.60485   1.000
    O49     O    0.38115   0.75349   0.74883   1.000
    O50     O    0.20787   0.84121   0.76891   1.000
    O51     O    0.13965   0.69294   0.63874   1.000
loop_
    _geom_bond_atom_site_label_1
    _geom_bond_atom_site_label_2
    _geom_bond_distance
    _geom_bond_site_symmetry_2
    _ccdc_geom_bond_type
    Zr12   O13       2.28492      .   S
    N11    O13       5.89894  1_455   S
    Zr12   O14       2.34881      .   S
    N8     O14       6.00868  1_455   S
    Zr12   O15       2.94343      .   S
    N3     O15       8.03979      .   S
    Zr12   O16       2.59738      .   S
    N7     O16       6.91383  1_545   S
    Zr17   O18       2.59689  1_455   S
    N2     O18       6.91292      .   S
    Zr17   O19       2.28513      .   S
    N5     O19       5.89891  1_554   S
    Zr17   O20       2.94383  1_455   S
    N7     O20       8.04085      .   S
    Zr17   O21       2.34998      .   S
    N0     O21       6.01187      .   S
    Zr22   O23       2.28505      .   S
    N4     O23       5.89870  1_554   S
    Zr22   O24       2.35061      .   S
    N6     O24       6.01377      .   S
    Zr22   O25       2.94385      .   S
    N1     O25       8.04082      .   S
    Zr22   O26       2.59693      .   S
    N3     O26       6.91300      .   S
    Zr27   O28       2.34953      .   S
    N4     O28       6.01072  1_655   S
    Zr27   O29       2.28407      .   S
    N6     O29       5.89651  1_655   S
    Zr27   O30       2.94335      .   S
    N2     O30       8.03959      .   S
    Zr27   O31       2.59736      .   S
    N7     O31       6.91378  1_556   S
    Zr32   O33       2.94331      .   S
    N3     O33       8.03949  1_455   S
    Zr32   O34       2.59740      .   S
    N1     O34       6.91392  1_456   S
    Zr32   O35       2.34951      .   S
    N5     O35       6.01065      .   S
    Zr32   O36       2.28492      .   S
    N0     O36       5.89890      .   S
    Zr37   O38       2.35016      .   S
    N11    O38       6.01222      .   S
    Zr37   O39       2.94371      .   S
    N1     O39       8.04064  1_446   S
    Zr37   O40       2.59714      .   S
    N2     O40       6.91327      .   S
    Zr37   O41       2.28541      .   S
    N8     O41       5.90018  1_556   S
    Zr42   O43       2.35015      .   S
    N10    O43       6.01238      .   S
    Zr42   O44       2.28497      .   S
    N9     O44       5.89875  1_556   S
    Zr42   O45       2.59711  1_655   S
    N3     O45       6.91319      .   S
    Zr42   O46       2.94363  1_655   S
    N7     O46       8.04049  1_546   S
    Zr47   O48       2.28492      .   S
    N10    O48       5.89893      .   S
    Zr47   O49       2.34937      .   S
    N9     O49       6.01034      .   S
    Zr47   O50       2.59731      .   S
    N1     O50       6.91362  1_545   S
    Zr47   O51       2.94340      .   S
    N2     O51       8.03970  1_655   S
