# CIF file generated by openbabel 2.4.90, see http://openbabel.sf.net
data_I
_chemical_name_common ''
_cell_length_a 17.383
_cell_length_b 18.645
_cell_length_c 18.184
_cell_angle_alpha 90.398
_cell_angle_beta 90.035
_cell_angle_gamma 90.007
_space_group_name_H-M_alt 'P 1'
_space_group_name_Hall 'P 1'
loop_
    _symmetry_equiv_pos_as_xyz
    x,y,z
loop_
    _atom_site_label
    _atom_site_type_symbol
    _atom_site_fract_x
    _atom_site_fract_y
    _atom_site_fract_z
    _atom_site_occupancy
    H0      H    0.31291   0.57865   0.03373   1.000
    H1      H    0.86436   0.52432   0.22385   1.000
    H2      H    0.65496   0.43799   0.13397   1.000
    H3      H    0.65679   0.34054   0.22781   1.000
    H4      H    0.86575   0.42706   0.31863   1.000
    H5      H    0.06565   0.71489   0.86082   1.000
    H6      H    0.20851   0.71640   0.86272   1.000
    H7      H    0.20576   0.63853   0.08550   1.000
    H8      H    0.07023   0.08162   0.53726   1.000
    H9      H    0.67244   0.03113   0.21608   1.000
    H10     H    0.85579   0.92222   0.32790   1.000
    H11     H    0.85301   0.82490   0.23246   1.000
    H12     H    0.66967   0.93346   0.12047   1.000
    H13     H    0.46362   0.15300   0.58775   1.000
    H14     H    0.07143   0.27606   0.41140   1.000
    H15     H    0.21459   0.27454   0.41000   1.000
    H16     H    0.45561   0.57718   0.03017   1.000
    H17     H    0.85943   0.52807   0.72058   1.000
    H18     H    0.67198   0.42077   0.82765   1.000
    H19     H    0.67548   0.32406   0.73156   1.000
    H20     H    0.86252   0.43126   0.62403   1.000
    H21     H    0.06289   0.63967   0.08365   1.000
    H22     H    0.45545   0.77911   0.91744   1.000
    H23     H    0.31236   0.77887   0.91659   1.000
    H24     H    0.21265   0.08255   0.54090   1.000
    H25     H    0.66159   0.02539   0.72440   1.000
    H26     H    0.86428   0.93183   0.62847   1.000
    H27     H    0.86134   0.83433   0.72213   1.000
    H28     H    0.65947   0.92832   0.81929   1.000
    H29     H    0.46032   0.19906   0.35661   1.000
    H30     H    0.31710   0.20005   0.35830   1.000
    H31     H    0.32046   0.15245   0.58993   1.000
    H32     H    0.68677   0.42079   0.96668   1.000
    H33     H    0.14229   0.46971   0.28073   1.000
    H34     H    0.33007   0.57657   0.17374   1.000
    H35     H    0.32607   0.67378   0.26933   1.000
    H36     H    0.13837   0.56722   0.37651   1.000
    H37     H    0.93669   0.35932   0.91588   1.000
    H38     H    0.93032   0.91699   0.46315   1.000
    H39     H    0.33744   0.97237   0.27455   1.000
    H40     H    0.13544   0.06627   0.37142   1.000
    H41     H    0.13825   0.16387   0.27790   1.000
    H42     H    0.33954   0.06961   0.17993   1.000
    H43     H    0.53980   0.79873   0.64304   1.000
    H44     H    0.92781   0.72208   0.58815   1.000
    H45     H    0.78466   0.72415   0.58916   1.000
    H46     H    0.54402   0.42167   0.97010   1.000
    H47     H    0.13515   0.47618   0.77770   1.000
    H48     H    0.34492   0.56244   0.86690   1.000
    H49     H    0.34296   0.65964   0.77282   1.000
    H50     H    0.13374   0.57306   0.68263   1.000
    H51     H    0.93480   0.28752   0.13993   1.000
    H52     H    0.79192   0.28517   0.13829   1.000
    H53     H    0.79379   0.35981   0.91434   1.000
    H54     H    0.54507   0.21996   0.08326   1.000
    H55     H    0.68820   0.22092   0.08438   1.000
    H56     H    0.78790   0.91660   0.45901   1.000
    H57     H    0.32826   0.96922   0.78304   1.000
    H58     H    0.14362   0.07719   0.67219   1.000
    H59     H    0.14639   0.17450   0.76763   1.000
    H60     H    0.33101   0.06686   0.87862   1.000
    H61     H    0.53614   0.84826   0.41269   1.000
    H62     H    0.67928   0.84884   0.41020   1.000
    H63     H    0.68302   0.79793   0.64115   1.000
    C64     C    0.34386   0.62299   0.00871   1.000
    C65     C    0.76165   0.37801   0.27845   1.000
    C66     C    0.75975   0.48655   0.17331   1.000
    C67     C    0.81917   0.48393   0.22540   1.000
    C68     C    0.70076   0.43525   0.17463   1.000
    C69     C    0.70183   0.38111   0.22679   1.000
    C70     C    0.82002   0.43002   0.27784   1.000
    C71     C    0.09692   0.69898   0.90999   1.000
    C72     C    0.17683   0.70013   0.91150   1.000
    C73     C    0.17535   0.65518   0.03602   1.000
    C74     C    0.10224   0.12463   0.51097   1.000
    C75     C    0.76120   0.87355   0.17081   1.000
    C76     C    0.76425   0.98254   0.27760   1.000
    C77     C    0.71163   0.98572   0.21916   1.000
    C78     C    0.81512   0.92429   0.28245   1.000
    C79     C    0.81362   0.87017   0.22941   1.000
    C80     C    0.69116   0.82228   0.52536   1.000
    C81     C    0.71006   0.93159   0.16620   1.000
    C82     C    0.43092   0.16281   0.53773   1.000
    C83     C    0.10307   0.23354   0.43901   1.000
    C84     C    0.18301   0.23255   0.43852   1.000
    C85     C    0.42381   0.62181   0.00656   1.000
    C86     C    0.76911   0.37213   0.67209   1.000
    C87     C    0.76560   0.48020   0.77982   1.000
    C88     C    0.81953   0.48312   0.72249   1.000
    C89     C    0.71379   0.42255   0.78317   1.000
    C90     C    0.71560   0.36884   0.72973   1.000
    C91     C    0.82128   0.42946   0.66902   1.000
    C92     C    0.09539   0.65580   0.03534   1.000
    C93     C    0.42360   0.73508   0.94205   1.000
    C94     C    0.34363   0.73472   0.94183   1.000
    C95     C    0.18219   0.12545   0.51288   1.000
    C96     C    0.76019   0.87560   0.77615   1.000
    C97     C    0.76306   0.98425   0.67092   1.000
    C98     C    0.70512   0.98342   0.72460   1.000
    C99     C    0.81966   0.93065   0.67034   1.000
    C100    C    0.81802   0.87645   0.72243   1.000
    C101    C    0.70382   0.92954   0.77707   1.000
    C102    C    0.42913   0.18952   0.40754   1.000
    C103    C    0.34915   0.19053   0.40885   1.000
    C104    C    0.35096   0.16240   0.53860   1.000
    C105    C    0.46446   0.67814   0.97362   1.000
    C106    C    0.30237   0.67888   0.97542   1.000
    C107    C    0.05539   0.67758   0.97222   1.000
    C108    C    0.21745   0.67813   0.97443   1.000
    C109    C    0.06193   0.17893   0.47432   1.000
    C110    C    0.22386   0.17863   0.47567   1.000
    C111    C    0.47081   0.17643   0.47219   1.000
    C112    C    0.30878   0.17715   0.47440   1.000
    C113    C    0.65597   0.37641   0.99179   1.000
    C114    C    0.23203   0.62609   0.32854   1.000
    C115    C    0.23630   0.51737   0.22160   1.000
    C116    C    0.18212   0.51471   0.27870   1.000
    C117    C    0.28808   0.57500   0.21809   1.000
    C118    C    0.28594   0.62901   0.27121   1.000
    C119    C    0.17991   0.56874   0.33177   1.000
    C120    C    0.90437   0.34383   0.96454   1.000
    C121    C    0.89802   0.87400   0.48910   1.000
    C122    C    0.23916   0.12260   0.22345   1.000
    C123    C    0.23636   0.01363   0.32859   1.000
    C124    C    0.29404   0.01445   0.27460   1.000
    C125    C    0.17991   0.06738   0.32939   1.000
    C126    C    0.18149   0.12167   0.27730   1.000
    C127    C    0.29531   0.06845   0.22227   1.000
    C128    C    0.57093   0.80902   0.59223   1.000
    C129    C    0.89646   0.76482   0.56071   1.000
    C130    C    0.81653   0.76613   0.56090   1.000
    C131    C    0.57602   0.37724   0.99380   1.000
    C132    C    0.23800   0.62213   0.72241   1.000
    C133    C    0.23996   0.51390   0.82798   1.000
    C134    C    0.18041   0.51650   0.77596   1.000
    C135    C    0.29899   0.56514   0.82637   1.000
    C136    C    0.29787   0.61914   0.77404   1.000
    C137    C    0.17954   0.57022   0.72336   1.000
    C138    C    0.90333   0.30255   0.09059   1.000
    C139    C    0.82342   0.30094   0.08920   1.000
    C140    C    0.82442   0.34407   0.96401   1.000
    C141    C    0.57674   0.26408   0.05860   1.000
    C142    C    0.65671   0.26483   0.05890   1.000
    C143    C    0.81807   0.87349   0.48697   1.000
    C144    C    0.23883   0.12633   0.82881   1.000
    C145    C    0.23580   0.01731   0.72193   1.000
    C146    C    0.28879   0.01443   0.78010   1.000
    C147    C    0.18458   0.07531   0.71741   1.000
    C148    C    0.18608   0.12944   0.77046   1.000
    C149    C    0.29034   0.06855   0.83312   1.000
    C150    C    0.56892   0.83766   0.46248   1.000
    C151    C    0.64888   0.83813   0.46150   1.000
    C152    C    0.65089   0.80813   0.59080   1.000
    C153    C    0.53563   0.32072   0.02677   1.000
    C154    C    0.69768   0.32076   0.02523   1.000
    C155    C    0.94459   0.32323   0.02794   1.000
    C156    C    0.78259   0.32185   0.02605   1.000
    C157    C    0.93794   0.81946   0.52583   1.000
    C158    C    0.77605   0.82042   0.52399   1.000
    C159    C    0.52916   0.82294   0.52784   1.000
loop_
    _geom_bond_atom_site_label_1
    _geom_bond_atom_site_label_2
    _geom_bond_distance
    _geom_bond_site_symmetry_2
    _ccdc_geom_bond_type
    C85    C64       1.39050      .   S
    C85    H16       1.08946      .   S
    C85    C105      1.40375  1_554   S
    C64    H0        1.08871      .   S
    C64    C106      1.40728  1_554   S
    C154   C156      1.47621      .   S
    C154   C142      1.40674      .   S
    C154   C113      1.40714  1_554   S
    C156   C139      1.40706      .   S
    C156   C140      1.40731  1_554   S
    C153   C141      1.40319      .   S
    C153   C131      1.40420  1_554   S
    C155   C138      1.40282      .   S
    C155   C120      1.40378  1_554   S
    C92    C73       1.38996      .   S
    C92    H21       1.08887      .   S
    C92    C107      1.40401  1_554   S
    C73    H7        1.09030      .   S
    C73    C108      1.40740  1_554   S
    C141   C142      1.39021      .   S
    C141   H54       1.08917      .   S
    C142   H55       1.09076      .   S
    C139   C138      1.38949      .   S
    C139   H52       1.08969      .   S
    C138   H51       1.08897      .   S
    H12    C81       1.08873      .   S
    H2     C68       1.08769      .   S
    C81    C75       1.40344      .   S
    C81    C77       1.39035      .   S
    C75    C79       1.40334      .   S
    C66    C68       1.40249      .   S
    C66    C67       1.40212      .   S
    H34    C117      1.08861      .   S
    C68    C69       1.39004      .   S
    H42    C127      1.08873      .   S
    H9     C77       1.08852  1_545   S
    C117   C115      1.40343      .   S
    C117   C118      1.39095      .   S
    C77    C76       1.40326      .   S
    C115   C116      1.40344      .   S
    C127   C122      1.40441      .   S
    C127   C124      1.39034      .   S
    C122   C126      1.40189      .   S
    H1     C67       1.08866      .   S
    C67    C70       1.39032      .   S
    C69    H3        1.08869      .   S
    C69    C65       1.40245      .   S
    C79    H11       1.08868      .   S
    C79    C78       1.39122      .   S
    H35    C118      1.08854      .   S
    C118   C114      1.40353      .   S
    H39    C124      1.08860  1_565   S
    C124   C123      1.40390      .   S
    C126   H41       1.08817      .   S
    C126   C125      1.39142      .   S
    C76    C78       1.40380      .   S
    C70    C65       1.40350      .   S
    C70    H4        1.08861      .   S
    C116   H33       1.08864      .   S
    C116   C119      1.39070      .   S
    C78    H10       1.08812      .   S
    C114   C119      1.40300      .   S
    C123   C125      1.40270      .   S
    C125   H40       1.08765      .   S
    C119   H36       1.08874      .   S
    H29    C102      1.08913      .   S
    H30    C103      1.09025      .   S
    C102   C103      1.39060      .   S
    C102   C111      1.40337      .   S
    C103   C112      1.40735      .   S
    H15    C84       1.09056      .   S
    H62    C151      1.09208      .   S
    H14    C83       1.08994      .   S
    H61    C150      1.08878      .   S
    C84    C83       1.38986      .   S
    C84    C110      1.40708      .   S
    C83    C109      1.40360      .   S
    H56    C143      1.08866      .   S
    C151   C150      1.39004      .   S
    C151   C80       1.40704      .   S
    C150   C159      1.40398      .   S
    H38    C121      1.08886      .   S
    C111   C82       1.40380      .   S
    C109   C74       1.40311      .   S
    C112   C110      1.47663      .   S
    C112   C104      1.40704      .   S
    C110   C95       1.40548      .   S
    C143   C121      1.39032      .   S
    C143   C158      1.40545      .   S
    C121   C157      1.40381      .   S
    C74    C95       1.39038      .   S
    C74    H8        1.08943      .   S
    C95    H24       1.08868      .   S
    C158   C80       1.47634      .   S
    C158   C130      1.40683      .   S
    C80    C152      1.40742      .   S
    C157   C129      1.40340      .   S
    C159   C128      1.40312      .   S
    C82    C104      1.39008      .   S
    C82    H13       1.08881      .   S
    C104   H31       1.09077      .   S
    C129   C130      1.38963      .   S
    C129   H44       1.08917      .   S
    C130   H45       1.09057      .   S
    C152   C128      1.39037      .   S
    C152   H63       1.09008      .   S
    C128   H43       1.08912      .   S
    H20    C91       1.08873      .   S
    H26    C99       1.08751      .   S
    C91    C86       1.40317      .   S
    C91    C88       1.39059      .   S
    C99    C97       1.40259      .   S
    C99    C100      1.39007      .   S
    C97    C98       1.40314      .   S
    C86    C90       1.40334      .   S
    H58    C147      1.08811      .   S
    H50    C137      1.08869      .   S
    C147   C145      1.40374      .   S
    C147   C148      1.39144      .   S
    H17    C88       1.08867      .   S
    C145   C146      1.40350      .   S
    H27    C100      1.08817      .   S
    C132   C137      1.40352      .   S
    C132   C136      1.40255      .   S
    C100   C96       1.40230      .   S
    C88    C87       1.40372      .   S
    C137   C134      1.38979      .   S
    H25    C98       1.08853  1_545   S
    C98    C101      1.39042      .   S
    C90    H19       1.08861      .   S
    C90    C89       1.39094      .   S
    H59    C148      1.08867      .   S
    C148   C144      1.40340      .   S
    H49    C136      1.08867      .   S
    C136   C135      1.39022      .   S
    C134   H47       1.08866      .   S
    C134   C133      1.40300      .   S
    C96    C101      1.40417      .   S
    C101   H28       1.08872      .   S
    C87    C89       1.40381      .   S
    C146   H57       1.08858  1_545   S
    C146   C149      1.39109      .   S
    C89    H18       1.08845      .   S
    C135   C133      1.40240      .   S
    C135   H48       1.08762      .   S
    C144   C149      1.40355      .   S
    C149   H60       1.08862      .   S
    H5     C71       1.08901      .   S
    H6     C72       1.08920      .   S
    C71    C72       1.38954      .   S
    C71    C107      1.40284      .   S
    C72    C108      1.40779      .   S
    H53    C140      1.09017      .   S
    H37    C120      1.08901      .   S
    H23    C94       1.09030      .   S
    H22    C93       1.08918      .   S
    C94    C93       1.39012      .   S
    C94    C106      1.40735      .   S
    C93    C105      1.40334      .   S
    C140   C120      1.38988      .   S
    H32    C113      1.08873      .   S
    H46    C131      1.08913      .   S
    C108   C106      1.47636      .   S
    C113   C131      1.39034      .   S
