# CIF file generated by openbabel 2.4.90, see http://openbabel.sf.net
data_I
_chemical_name_common ''
_cell_length_a 17.383
_cell_length_b 18.645
_cell_length_c 18.184
_cell_angle_alpha 90.398
_cell_angle_beta 90.035
_cell_angle_gamma 90.007
_space_group_name_H-M_alt 'P 1'
_space_group_name_Hall 'P 1'
loop_
    _symmetry_equiv_pos_as_xyz
    x,y,z
loop_
    _atom_site_label
    _atom_site_type_symbol
    _atom_site_fract_x
    _atom_site_fract_y
    _atom_site_fract_z
    _atom_site_occupancy
    N0      N    0.76051   0.43248   0.22607   1.000
    N1      N    0.25991   0.67804   0.97392   1.000
    N2      N    0.76268   0.92796   0.22425   1.000
    N3      N    0.26632   0.17760   0.47414   1.000
    N4      N    0.73360   0.82150   0.52571   1.000
    N5      N    0.23412   0.57182   0.27502   1.000
    N6      N    0.23769   0.06803   0.27594   1.000
    N7      N    0.74014   0.32178   0.02651   1.000
    N8      N    0.23915   0.56784   0.77502   1.000
    N9      N    0.76743   0.42605   0.72601   1.000
    N10     N    0.76165   0.92998   0.72358   1.000
    N11     N    0.23737   0.07191   0.77533   1.000
    Zr12    Zr   0.76648   0.17917   0.47300   1.000
    O13     O    0.76458   0.07534   0.57803   1.000
    O14     O    0.76745   0.28202   0.57871   1.000
    O15     O    0.76519   0.07454   0.36904   1.000
    O16     O    0.95459   0.17867   0.47340   1.000
    O17     O    0.57824   0.17824   0.47303   1.000
    O18     O    0.76404   0.28487   0.36956   1.000
    Zr19    Zr   0.76003   0.67891   0.97330   1.000
    O20     O    0.94813   0.67850   0.97313   1.000
    O21     O    0.76086   0.78263   0.07819   1.000
    O22     O    0.76010   0.57630   0.07930   1.000
    O23     O    0.76294   0.57334   0.87019   1.000
    O24     O    0.57182   0.67845   0.97338   1.000
    O25     O    0.76032   0.78363   0.86865   1.000
    Zr26    Zr   0.23356   0.81967   0.52705   1.000
    O27     O    0.23318   0.71649   0.42166   1.000
    O28     O    0.23516   0.92304   0.42175   1.000
    O29     O    0.42175   0.82074   0.52697   1.000
    O30     O    0.04537   0.82010   0.52668   1.000
    O31     O    0.23485   0.92480   0.63077   1.000
    O32     O    0.23582   0.71463   0.63091   1.000
    Zr33    Zr   0.24013   0.32032   0.02706   1.000
    O34     O    0.05195   0.32131   0.02719   1.000
    O35     O    0.42830   0.32078   0.02697   1.000
    O36     O    0.23799   0.42511   0.13064   1.000
    O37     O    0.23946   0.21508   0.13134   1.000
    O38     O    0.23924   0.21692   0.92179   1.000
    O39     O    0.23985   0.42349   0.92147   1.000
loop_
    _geom_bond_atom_site_label_1
    _geom_bond_atom_site_label_2
    _geom_bond_distance
    _geom_bond_site_symmetry_2
    _ccdc_geom_bond_type
    Zr12   O13       2.72902      .   S
    N10    O13       3.80172  1_565   S
    Zr12   O14       2.70576      .   S
    N9     O14       3.77974      .   S
    Zr12   O15       2.70704      .   S
    N2     O15       3.78200  1_565   S
    Zr12   O16       3.27002      .   S
    N3     O16       5.41889  1_455   S
    Zr12   O17       3.27220      .   S
    N3     O17       5.42206      .   S
    Zr12   O18       2.73411      .   S
    N0     O18       3.80601      .   S
    Zr19   O20       3.26975      .   S
    N1     O20       5.41962  1_455   S
    Zr19   O21       2.70678  1_556   S
    N2     O21       3.78121      .   S
    Zr19   O22       2.72505  1_556   S
    N0     O22       3.79645      .   S
    Zr19   O23       2.70947      .   S
    N9     O23       3.78439      .   S
    Zr19   O24       3.27172      .   S
    N1     O24       5.42197      .   S
    Zr19   O25       2.73599      .   S
    N10    O25       3.80860      .   S
    Zr26   O27       2.70595      .   S
    N5     O27       3.77974      .   S
    Zr26   O28       2.72626      .   S
    N6     O28       3.80000  1_545   S
    Zr26   O29       3.27148      .   S
    N4     O29       5.42086      .   S
    Zr26   O30       3.27129      .   S
    N4     O30       5.41961  1_655   S
    Zr26   O31       2.71080      .   S
    N11    O31       3.78623  1_545   S
    Zr26   O32       2.73044      .   S
    N8     O32       3.80275      .   S
    Zr33   O34       3.27111      .   S
    N7     O34       5.42034  1_655   S
    Zr33   O35       3.27095      .   S
    N7     O35       5.42072      .   S
    Zr33   O36       2.70466      .   S
    N5     O36       3.77906      .   S
    Zr33   O37       2.73817      .   S
    N6     O37       3.81212      .   S
    Zr33   O38       2.70719  1_554   S
    N11    O38       3.78207      .   S
    Zr33   O39       2.72733  1_554   S
    N8     O39       3.79934      .   S
