# CIF file generated by openbabel 2.4.90, see http://openbabel.sf.net
data_I
_chemical_name_common ''
_cell_length_a 23.83
_cell_length_b 23.831
_cell_length_c 15.27
_cell_angle_alpha 109.83
_cell_angle_beta 109.896
_cell_angle_gamma 97.193
_space_group_name_H-M_alt 'P 1'
_space_group_name_Hall 'P 1'
loop_
    _symmetry_equiv_pos_as_xyz
    x,y,z
loop_
    _atom_site_label
    _atom_site_type_symbol
    _atom_site_fract_x
    _atom_site_fract_y
    _atom_site_fract_z
    _atom_site_occupancy
    Zr0     Zr   0.39092   0.01033   0.78210   1.000
    Zr1     Zr   0.39091   0.51043   0.78217   1.000
    Zr2     Zr   0.89080   0.01035   0.78212   1.000
    Zr3     Zr   0.89074   0.51030   0.78199   1.000
    Zr4     Zr   0.48991   0.10924   0.71805   1.000
    Zr5     Zr   0.49002   0.60912   0.71809   1.000
    Zr6     Zr   0.98982   0.10929   0.71796   1.000
    Zr7     Zr   0.98982   0.60911   0.71797   1.000
    Zr8     Zr   0.10922   0.48968   0.21800   1.000
    Zr9     Zr   0.10916   0.98963   0.21789   1.000
    Zr10    Zr   0.60905   0.48955   0.21784   1.000
    Zr11    Zr   0.60904   0.98965   0.21791   1.000
    Zr12    Zr   0.01014   0.39087   0.28204   1.000
    Zr13    Zr   0.01014   0.89069   0.28205   1.000
    Zr14    Zr   0.50994   0.39085   0.28192   1.000
    Zr15    Zr   0.51005   0.89074   0.28196   1.000
    N16     N    0.62421   0.58786   0.59465   1.000
    O17     O    0.57799   0.59733   0.64416   1.000
    O18     O    0.62236   0.55359   0.44891   1.000
    O19     O    0.57393   0.51687   0.46013   1.000
    N20     N    0.30836   0.03963   0.34627   1.000
    O21     O    0.38154   0.07110   0.49028   1.000
    O22     O    0.23654   0.02080   0.29492   1.000
    N23     N    0.87577   0.41203   0.40521   1.000
    O24     O    0.92203   0.40260   0.35576   1.000
    O25     O    0.87758   0.44627   0.55096   1.000
    O26     O    0.92600   0.48305   0.53973   1.000
    N27     N    0.89034   0.10979   0.75001   1.000
    O28     O    0.89313   0.08225   0.75804   1.000
    O29     O    0.91789   0.10699   0.74200   1.000
    N30     N    0.03959   0.80824   0.84618   1.000
    O31     O    0.02086   0.73645   0.79488   1.000
    O32     O    0.07101   0.88135   0.99016   1.000
    N33     N    0.53956   0.80822   0.84606   1.000
    O34     O    0.52091   0.73644   0.79484   1.000
    O35     O    0.57087   0.88134   0.99008   1.000
    N36     N    0.58801   0.12412   0.09483   1.000
    O37     O    0.59738   0.07781   0.14425   1.000
    O38     O    0.55391   0.12237   0.94910   1.000
    O39     O    0.51700   0.07402   0.96028   1.000
    N40     N    0.41188   0.37585   0.90515   1.000
    O41     O    0.48294   0.42587   0.03969   1.000
    O42     O    0.40255   0.42221   0.85578   1.000
    O43     O    0.44587   0.37762   0.05087   1.000
    N44     N    0.80826   0.03960   0.34615   1.000
    O45     O    0.73644   0.02078   0.29484   1.000
    O46     O    0.88144   0.07111   0.49018   1.000
    N47     N    0.08785   0.62412   0.09475   1.000
    O48     O    0.05373   0.62235   0.94905   1.000
    O49     O    0.01661   0.57403   0.96023   1.000
    O50     O    0.09736   0.57782   0.14420   1.000
    N51     N    0.19171   0.46043   0.65386   1.000
    O52     O    0.26353   0.47927   0.70520   1.000
    O53     O    0.11853   0.42907   0.50987   1.000
    N54     N    0.62419   0.08786   0.59471   1.000
    O55     O    0.57794   0.09737   0.64419   1.000
    O56     O    0.62235   0.05368   0.44899   1.000
    O57     O    0.57398   0.01661   0.46020   1.000
    N58     N    0.96029   0.19174   0.15383   1.000
    O59     O    0.92891   0.11863   0.00984   1.000
    O60     O    0.97906   0.26353   0.20512   1.000
    N61     N    0.58807   0.62412   0.09486   1.000
    O62     O    0.59741   0.57777   0.14423   1.000
    O63     O    0.51702   0.57411   0.96032   1.000
    O64     O    0.55408   0.62236   0.94914   1.000
    N65     N    0.30839   0.53970   0.34620   1.000
    O66     O    0.38160   0.57099   0.49020   1.000
    O67     O    0.23658   0.52086   0.29491   1.000
    N68     N    0.08790   0.12408   0.09473   1.000
    O69     O    0.05378   0.12235   0.94899   1.000
    O70     O    0.09738   0.07778   0.14416   1.000
    O71     O    0.01665   0.07401   0.96022   1.000
    N72     N    0.96023   0.69158   0.15377   1.000
    O73     O    0.97902   0.76336   0.20508   1.000
    O74     O    0.92884   0.61849   0.00977   1.000
    N75     N    0.41195   0.87586   0.90517   1.000
    O76     O    0.44604   0.87761   0.05090   1.000
    O77     O    0.40258   0.92217   0.85576   1.000
    O78     O    0.48296   0.92595   0.03973   1.000
    N79     N    0.53955   0.30832   0.84600   1.000
    O80     O    0.52087   0.23655   0.79480   1.000
    O81     O    0.57087   0.38141   0.99000   1.000
    N82     N    0.12419   0.58795   0.59478   1.000
    O83     O    0.12238   0.55370   0.44901   1.000
    O84     O    0.07792   0.59738   0.64424   1.000
    O85     O    0.07396   0.51693   0.46027   1.000
    N86     N    0.03965   0.30840   0.84624   1.000
    O87     O    0.07108   0.38149   0.99023   1.000
    O88     O    0.02090   0.23662   0.79493   1.000
    N89     N    0.69157   0.46028   0.65380   1.000
    O90     O    0.76338   0.47912   0.70507   1.000
    O91     O    0.61836   0.42899   0.50981   1.000
    N92     N    0.69160   0.96028   0.65374   1.000
    O93     O    0.61842   0.92884   0.50973   1.000
    O94     O    0.76342   0.97914   0.70509   1.000
    N95     N    0.87579   0.91204   0.40531   1.000
    O96     O    0.92205   0.90253   0.35584   1.000
    O97     O    0.87764   0.94626   0.55109   1.000
    O98     O    0.92599   0.98317   0.53977   1.000
    N99     N    0.80825   0.53955   0.34607   1.000
    O100    O    0.88143   0.57091   0.49008   1.000
    O101    O    0.73643   0.52071   0.29477   1.000
    N102    N    0.39047   0.10978   0.75010   1.000
    O103    O    0.39325   0.08224   0.75810   1.000
    O104    O    0.41799   0.10697   0.74209   1.000
    N105    N    0.37575   0.41211   0.40535   1.000
    O106    O    0.42197   0.40265   0.35585   1.000
    O107    O    0.37760   0.44638   0.55110   1.000
    O108    O    0.42603   0.48311   0.53988   1.000
    N109    N    0.10962   0.89019   0.25000   1.000
    O110    O    0.10683   0.91773   0.24197   1.000
    O111    O    0.08207   0.89299   0.25801   1.000
    N112    N    0.46040   0.19176   0.15391   1.000
    O113    O    0.42909   0.11864   0.00992   1.000
    O114    O    0.47905   0.26354   0.20515   1.000
    N115    N    0.12416   0.08789   0.59469   1.000
    O116    O    0.07397   0.01662   0.46023   1.000
    O117    O    0.07791   0.09742   0.64416   1.000
    O118    O    0.12232   0.05369   0.44891   1.000
    N119    N    0.46041   0.69165   0.15400   1.000
    O120    O    0.47909   0.76343   0.20521   1.000
    O121    O    0.42909   0.61857   0.01001   1.000
    N122    N    0.91200   0.87589   0.90527   1.000
    O123    O    0.94615   0.87762   0.05101   1.000
    O124    O    0.98307   0.92597   0.03977   1.000
    O125    O    0.90255   0.92220   0.85585   1.000
    N126    N    0.19169   0.96031   0.65385   1.000
    O127    O    0.11851   0.92884   0.50983   1.000
    O128    O    0.26352   0.97917   0.70516   1.000
    N129    N    0.60949   0.89020   0.24989   1.000
    O130    O    0.60671   0.91774   0.24190   1.000
    O131    O    0.58196   0.89301   0.25791   1.000
    N132    N    0.91205   0.37586   0.90517   1.000
    O133    O    0.94620   0.37763   0.05092   1.000
    O134    O    0.98313   0.42596   0.03973   1.000
    O135    O    0.90258   0.42216   0.85574   1.000
    N136    N    0.37577   0.91207   0.40529   1.000
    O137    O    0.42202   0.90259   0.35582   1.000
    O138    O    0.42598   0.98315   0.53981   1.000
    O139    O    0.37761   0.94628   0.55102   1.000
    N140    N    0.39057   0.60994   0.75016   1.000
    O141    O    0.39333   0.58239   0.75816   1.000
    O142    O    0.41811   0.60706   0.74214   1.000
    N143    N    0.10962   0.39017   0.24999   1.000
    O144    O    0.10684   0.41772   0.24200   1.000
    O145    O    0.08208   0.39302   0.25801   1.000
    N146    N    0.60938   0.39003   0.24980   1.000
    O147    O    0.60662   0.41759   0.24181   1.000
    O148    O    0.58185   0.39291   0.25783   1.000
    N149    N    0.89034   0.60981   0.75002   1.000
    O150    O    0.89312   0.58226   0.75801   1.000
    O151    O    0.91789   0.60696   0.74201   1.000
loop_
    _geom_bond_atom_site_label_1
    _geom_bond_atom_site_label_2
    _geom_bond_distance
    _geom_bond_site_symmetry_2
    _ccdc_geom_bond_type
    N16    O17       1.53255      .   S
    Zr5    O17       2.70014      .   S
    N16    O18       2.07676      .   S
    Zr10   O18       3.21606      .   S
    N16    O19       1.99420      .   S
    Zr14   O19       3.03865      .   S
    N20    O21       2.09344      .   S
    Zr4    O21       3.27812      .   S
    N20    O22       1.54953      .   S
    Zr9    O22       2.74986  1_565   S
    N23    O24       1.53283      .   S
    Zr12   O24       2.70114  1_455   S
    N23    O25       2.07712      .   S
    Zr3    O25       3.21675      .   S
    N23    O26       1.99432      .   S
    Zr7    O26       3.03911      .   S
    N27    O28       0.71420      .   S
    Zr2    O28       1.86872      .   S
    N27    O29       0.71438      .   S
    Zr6    O29       1.86934      .   S
    N30    O31       1.54961      .   S
    Zr7    O31       2.75031  1_655   S
    N30    O32       2.09383      .   S
    Zr9    O32       3.27877  1_554   S
    N33    O34       1.54939      .   S
    Zr5    O34       2.74989      .   S
    N33    O35       2.09453      .   S
    Zr11   O35       3.28009  1_554   S
    N36    O37       1.53265      .   S
    Zr11   O37       2.70053  1_565   S
    N36    O38       2.07652  1_554   S
    Zr4    O38       3.21576      .   S
    N36    O39       1.99335  1_554   S
    Zr0    O39       3.03743      .   S
    N40    O41       1.99344  1_556   S
    Zr10   O41       3.03767      .   S
    N40    O42       1.53305      .   S
    Zr1    O42       2.70141      .   S
    N40    O43       2.07607  1_556   S
    Zr14   O43       3.21507      .   S
    N44    O45       1.54960      .   S
    Zr11   O45       2.75037  1_565   S
    N44    O46       2.09353      .   S
    Zr6    O46       3.27811      .   S
    N47    O48       2.07588  1_554   S
    Zr7    O48       3.21509  1_655   S
    N47    O49       1.99548  1_554   S
    Zr3    O49       3.03472  1_655   S
    N47    O50       1.53315      .   S
    Zr8    O50       2.70178      .   S
    N51    O52       1.54951      .   S
    Zr1    O52       2.74994      .   S
    N51    O53       2.09361      .   S
    Zr12   O53       3.27865      .   S
    N54    O55       1.53300      .   S
    Zr4    O55       2.70110      .   S
    N54    O56       2.07655      .   S
    Zr11   O56       3.21610  1_565   S
    N54    O57       1.99641      .   S
    Zr15   O57       3.03660  1_565   S
    N58    O59       2.09392      .   S
    Zr2    O59       3.27892  1_556   S
    N58    O60       1.54959      .   S
    Zr12   O60       2.75030  1_455   S
    N61    O62       1.53306      .   S
    Zr10   O62       2.70145      .   S
    N61    O63       1.99345  1_554   S
    Zr1    O63       3.03768      .   S
    N61    O64       2.07610  1_554   S
    Zr5    O64       3.21508      .   S
    N65    O66       2.09411      .   S
    Zr5    O66       3.27993      .   S
    N65    O67       1.54936      .   S
    Zr8    O67       2.74939      .   S
    N68    O69       2.07673  1_554   S
    Zr6    O69       3.21595  1_655   S
    N68    O70       1.53293      .   S
    Zr9    O70       2.70116  1_565   S
    N68    O71       1.99539  1_554   S
    Zr2    O71       3.03344  1_655   S
    N72    O73       1.54952      .   S
    Zr13   O73       2.74990  1_455   S
    N72    O74       2.09379      .   S
    Zr3    O74       3.27868  1_556   S
    N75    O76       2.07653  1_556   S
    Zr15   O76       3.21576      .   S
    N75    O77       1.53265      .   S
    Zr0    O77       2.70054  1_545   S
    N75    O78       1.99336  1_556   S
    Zr11   O78       3.03745      .   S
    N79    O80       1.54936      .   S
    Zr4    O80       2.74970      .   S
    N79    O81       2.09393      .   S
    Zr10   O81       3.27855  1_554   S
    N82    O83       2.07738      .   S
    Zr8    O83       3.21652      .   S
    N82    O84       1.53292      .   S
    Zr7    O84       2.70121  1_655   S
    N82    O85       1.99423      .   S
    Zr12   O85       3.03904      .   S
    N86    O87       2.09366      .   S
    Zr8    O87       3.27837  1_554   S
    N86    O88       1.54955      .   S
    Zr6    O88       2.74992  1_655   S
    N89    O90       1.54936      .   S
    Zr3    O90       2.74940      .   S
    N89    O91       2.09405      .   S
    Zr14   O91       3.27989      .   S
    N92    O93       2.09354      .   S
    Zr15   O93       3.27829      .   S
    N92    O94       1.54950      .   S
    Zr2    O94       2.74983  1_545   S
    N95    O96       1.53299      .   S
    Zr13   O96       2.70160  1_455   S
    N95    O97       2.07722      .   S
    Zr2    O97       3.21686  1_545   S
    N95    O98       1.99483      .   S
    Zr6    O98       3.03978  1_545   S
    N99    O100      2.09377      .   S
    Zr7    O100      3.27928      .   S
    N99    O101      1.54948      .   S
    Zr10   O101      2.74995      .   S
    N102   O103      0.71414      .   S
    Zr0    O103      1.86827      .   S
    N102   O104      0.71403      .   S
    Zr4    O104      1.86881      .   S
    N105   O106      1.53248      .   S
    Zr14   O106      2.70010      .   S
    N105   O107      2.07678      .   S
    Zr1    O107      3.21610      .   S
    N105   O108      1.99424      .   S
    Zr5    O108      3.03866      .   S
    N109   O110      0.71420      .   S
    Zr9    O110      1.86872      .   S
    N109   O111      0.71438      .   S
    Zr13   O111      1.86936      .   S
    N112   O113      2.09431      .   S
    Zr0    O113      3.27989  1_556   S
    N112   O114      1.54941      .   S
    Zr14   O114      2.74989      .   S
    N115   O116      1.99620      .   S
    Zr13   O116      3.03696  1_565   S
    N115   O117      1.53306      .   S
    Zr6    O117      2.70164  1_655   S
    N115   O118      2.07718      .   S
    Zr9    O118      3.21673  1_565   S
    N119   O120      1.54937      .   S
    Zr15   O120      2.74970      .   S
    N119   O121      2.09391      .   S
    Zr1    O121      3.27855  1_556   S
    N122   O123      2.07683  1_556   S
    Zr13   O123      3.21608  1_455   S
    N122   O124      1.99348  1_556   S
    Zr9    O124      3.03717  1_455   S
    N122   O125      1.53282      .   S
    Zr2    O125      2.70108  1_545   S
    N126   O127      2.09359      .   S
    Zr13   O127      3.27822      .   S
    N126   O128      1.54959      .   S
    Zr0    O128      2.75037  1_545   S
    N129   O130      0.71407      .   S
    Zr11   O130      1.86817      .   S
    N129   O131      0.71410      .   S
    Zr15   O131      1.86886      .   S
    N132   O133      2.07649  1_556   S
    Zr12   O133      3.21573  1_455   S
    N132   O134      1.99409  1_556   S
    Zr8    O134      3.03822  1_455   S
    N132   O135      1.53295      .   S
    Zr3    O135      2.70125      .   S
    N136   O137      1.53290      .   S
    Zr15   O137      2.70099      .   S
    N136   O138      1.99483      .   S
    Zr4    O138      3.03975  1_545   S
    N136   O139      2.07659      .   S
    Zr0    O139      3.21619  1_545   S
    N140   O141      0.71426      .   S
    Zr1    O141      1.86949      .   S
    N140   O142      0.71450      .   S
    Zr5    O142      1.86908      .   S
    N143   O144      0.71422      .   S
    Zr8    O144      1.86921      .   S
    N143   O145      0.71457      .   S
    Zr12   O145      1.86935      .   S
    N146   O147      0.71424      .   S
    Zr10   O147      1.86917      .   S
    N146   O148      0.71450      .   S
    Zr14   O148      1.86935      .   S
    N149   O150      0.71416      .   S
    Zr3    O150      1.86906      .   S
    N149   O151      0.71457      .   S
    Zr7    O151      1.86932      .   S
