# CIF file generated by openbabel 2.4.90, see http://openbabel.sf.net
data_I
_chemical_name_common ''
_cell_length_a 23.83
_cell_length_b 23.831
_cell_length_c 15.27
_cell_angle_alpha 109.83
_cell_angle_beta 109.896
_cell_angle_gamma 97.193
_space_group_name_H-M_alt 'P 1'
_space_group_name_Hall 'P 1'
loop_
    _symmetry_equiv_pos_as_xyz
    x,y,z
loop_
    _atom_site_label
    _atom_site_type_symbol
    _atom_site_fract_x
    _atom_site_fract_y
    _atom_site_fract_z
    _atom_site_occupancy
    C0      C    0.39092   0.01033   0.78210   1.000
    C1      C    0.39091   0.51043   0.78217   1.000
    C2      C    0.89080   0.01035   0.78212   1.000
    C3      C    0.89074   0.51030   0.78199   1.000
    C4      C    0.48991   0.10924   0.71805   1.000
    C5      C    0.49002   0.60912   0.71809   1.000
    C6      C    0.98982   0.10929   0.71796   1.000
    C7      C    0.98982   0.60911   0.71797   1.000
    C8      C    0.10922   0.48968   0.21800   1.000
    C9      C    0.10916   0.98963   0.21789   1.000
    C10     C    0.60905   0.48955   0.21784   1.000
    C11     C    0.60904   0.98965   0.21791   1.000
    C12     C    0.01014   0.39087   0.28204   1.000
    C13     C    0.01014   0.89069   0.28205   1.000
    C14     C    0.50994   0.39085   0.28192   1.000
    C15     C    0.51005   0.89074   0.28196   1.000
    C16     C    0.40142   0.13137   0.81594   1.000
    C17     C    0.40147   0.63144   0.81601   1.000
    C18     C    0.90123   0.13137   0.81580   1.000
    C19     C    0.90122   0.63134   0.81584   1.000
    C20     C    0.05886   0.01277   0.01630   1.000
    C21     C    0.05880   0.51280   0.01647   1.000
    C22     C    0.55882   0.01281   0.01647   1.000
    C23     C    0.55883   0.51280   0.01639   1.000
    C24     C    0.09424   0.20767   0.08040   1.000
    C25     C    0.09418   0.70769   0.08047   1.000
    C26     C    0.59437   0.20771   0.08050   1.000
    C27     C    0.59449   0.70773   0.08062   1.000
    C28     C    0.14653   0.14017   0.31892   1.000
    C29     C    0.14652   0.64021   0.31901   1.000
    C30     C    0.64643   0.14020   0.31904   1.000
    C31     C    0.64641   0.64010   0.31902   1.000
    C32     C    0.44956   0.26521   0.07818   1.000
    C33     C    0.44953   0.76509   0.07818   1.000
    C34     C    0.94953   0.26523   0.07813   1.000
    C35     C    0.94946   0.76507   0.07806   1.000
    C36     C    0.44694   0.10068   0.13718   1.000
    C37     C    0.44695   0.60059   0.13730   1.000
    C38     C    0.94672   0.10065   0.13702   1.000
    C39     C    0.94666   0.60050   0.13699   1.000
    C40     C    0.02142   0.28582   0.37949   1.000
    C41     C    0.02140   0.78568   0.37943   1.000
    C42     C    0.52126   0.28587   0.37959   1.000
    C43     C    0.52137   0.78581   0.37962   1.000
    C44     C    0.36885   0.09892   0.68427   1.000
    C45     C    0.36900   0.59915   0.68435   1.000
    C46     C    0.86874   0.09891   0.68420   1.000
    C47     C    0.86876   0.59897   0.68421   1.000
    C48     C    0.48713   0.44126   0.48363   1.000
    C49     C    0.48715   0.94122   0.48360   1.000
    C50     C    0.98714   0.44124   0.48346   1.000
    C51     C    0.98717   0.94115   0.48357   1.000
    C52     C    0.29220   0.40585   0.41980   1.000
    C53     C    0.29221   0.90580   0.41969   1.000
    C54     C    0.79223   0.40570   0.41968   1.000
    C55     C    0.79224   0.90582   0.41977   1.000
    C56     C    0.35946   0.35342   0.18116   1.000
    C57     C    0.35952   0.85338   0.18113   1.000
    C58     C    0.85944   0.35336   0.18100   1.000
    C59     C    0.85946   0.85327   0.18110   1.000
    C60     C    0.23486   0.05039   0.42190   1.000
    C61     C    0.23494   0.55049   0.42192   1.000
    C62     C    0.73479   0.05035   0.42180   1.000
    C63     C    0.73479   0.55025   0.42177   1.000
    C64     C    0.39946   0.05340   0.36314   1.000
    C65     C    0.39947   0.55328   0.36299   1.000
    C66     C    0.89938   0.05338   0.36302   1.000
    C67     C    0.89935   0.55320   0.36291   1.000
    C68     C    0.21413   0.47842   0.12054   1.000
    C69     C    0.21416   0.97837   0.12058   1.000
    C70     C    0.71403   0.47829   0.12042   1.000
    C71     C    0.71407   0.97830   0.12047   1.000
    C72     C    0.09874   0.36864   0.18417   1.000
    C73     C    0.09873   0.86861   0.18421   1.000
    C74     C    0.59848   0.36853   0.18400   1.000
    C75     C    0.59853   0.86860   0.18400   1.000
    C76     C    0.44113   0.48718   0.98363   1.000
    C77     C    0.44114   0.98717   0.98354   1.000
    C78     C    0.94117   0.48719   0.98354   1.000
    C79     C    0.94109   0.98721   0.98364   1.000
    C80     C    0.40546   0.29224   0.91939   1.000
    C81     C    0.40558   0.79227   0.91951   1.000
    C82     C    0.90578   0.29229   0.91950   1.000
    C83     C    0.90572   0.79231   0.91961   1.000
    C84     C    0.35355   0.35988   0.68100   1.000
    C85     C    0.35353   0.85978   0.68097   1.000
    C86     C    0.85344   0.35977   0.68100   1.000
    C87     C    0.85343   0.85981   0.68109   1.000
    C88     C    0.05050   0.23491   0.92196   1.000
    C89     C    0.05043   0.73474   0.92188   1.000
    C90     C    0.55043   0.23489   0.92183   1.000
    C91     C    0.55039   0.73476   0.92183   1.000
    C92     C    0.05330   0.39948   0.86302   1.000
    C93     C    0.05324   0.89933   0.86300   1.000
    C94     C    0.55301   0.39939   0.86271   1.000
    C95     C    0.55302   0.89930   0.86283   1.000
    C96     C    0.47859   0.21416   0.62039   1.000
    C97     C    0.47870   0.71411   0.62042   1.000
    C98     C    0.97856   0.21430   0.62058   1.000
    C99     C    0.97854   0.71416   0.62052   1.000
    C100    C    0.13120   0.40101   0.31580   1.000
    C101    C    0.13121   0.90107   0.31581   1.000
    C102    C    0.63096   0.40082   0.31560   1.000
    C103    C    0.63111   0.90106   0.31574   1.000
    C104    C    0.01279   0.05882   0.51644   1.000
    C105    C    0.01282   0.55874   0.51655   1.000
    C106    C    0.51281   0.05876   0.51637   1.000
    C107    C    0.51283   0.55871   0.51639   1.000
    C108    C    0.20771   0.09416   0.58024   1.000
    C109    C    0.20774   0.59428   0.58033   1.000
    C110    C    0.70775   0.09418   0.58032   1.000
    C111    C    0.70775   0.59412   0.58022   1.000
    C112    C    0.14049   0.14671   0.81889   1.000
    C113    C    0.14052   0.64662   0.81901   1.000
    C114    C    0.64043   0.14659   0.81888   1.000
    C115    C    0.64050   0.64656   0.81885   1.000
    C116    C    0.26517   0.44972   0.57823   1.000
    C117    C    0.26517   0.94963   0.57820   1.000
    C118    C    0.76503   0.44949   0.57809   1.000
    C119    C    0.76510   0.94960   0.57811   1.000
    C120    C    0.10061   0.44678   0.63710   1.000
    C121    C    0.10058   0.94660   0.63700   1.000
    C122    C    0.60049   0.44669   0.63700   1.000
    C123    C    0.60050   0.94659   0.63687   1.000
    C124    C    0.28589   0.02167   0.87953   1.000
    C125    C    0.28593   0.52168   0.87959   1.000
    C126    C    0.78580   0.02161   0.87943   1.000
    C127    C    0.78583   0.52156   0.87947   1.000
    C128    C    0.07748   0.06135   0.06952   1.000
    C129    C    0.07741   0.56138   0.06961   1.000
    C130    C    0.57746   0.06139   0.06960   1.000
    C131    C    0.57747   0.56137   0.06958   1.000
    C132    C    0.07283   0.10825   0.03414   1.000
    C133    C    0.07276   0.60828   0.03424   1.000
    C134    C    0.57290   0.10828   0.03424   1.000
    C135    C    0.57299   0.60831   0.03427   1.000
    C136    C    0.09714   0.17001   0.10549   1.000
    C137    C    0.09708   0.67004   0.10558   1.000
    C138    C    0.59722   0.17004   0.10560   1.000
    C139    C    0.59730   0.67005   0.10568   1.000
    C140    C    0.12332   0.18172   0.20889   1.000
    C141    C    0.12329   0.68176   0.20898   1.000
    C142    C    0.62333   0.18175   0.20900   1.000
    C143    C    0.62336   0.68171   0.20907   1.000
    C144    C    0.12667   0.13262   0.23881   1.000
    C145    C    0.12663   0.63266   0.23800   1.000
    C146    C    0.62660   0.13266   0.23893   1.000
    C147    C    0.62659   0.63259   0.23892   1.000
    C148    C    0.03832   0.09094   0.92112   1.000
    C149    C    0.03826   0.59100   0.92120   1.000
    C150    C    0.53850   0.09098   0.92120   1.000
    C151    C    0.53867   0.59109   0.92125   1.000
    C152    C    0.45898   0.24254   0.13054   1.000
    C153    C    0.45897   0.74242   0.13056   1.000
    C154    C    0.95893   0.24254   0.13045   1.000
    C155    C    0.95887   0.74238   0.13030   1.000
    C156    C    0.44415   0.17792   0.09355   1.000
    C157    C    0.44412   0.67781   0.09361   1.000
    C158    C    0.94398   0.17792   0.09343   1.000
    C159    C    0.94390   0.67775   0.09338   1.000
    C160    C    0.45755   0.15089   0.16380   1.000
    C161    C    0.45756   0.65080   0.16394   1.000
    C162    C    0.95741   0.15087   0.16371   1.000
    C163    C    0.95735   0.65072   0.16367   1.000
    C164    C    0.48519   0.18996   0.26740   1.000
    C165    C    0.48524   0.68989   0.26749   1.000
    C166    C    0.98517   0.18993   0.26727   1.000
    C167    C    0.98511   0.68978   0.26723   1.000
    C168    C    0.99889   0.25412   0.29903   1.000
    C169    C    0.99885   0.75397   0.29897   1.000
    C170    C    0.49880   0.25416   0.29913   1.000
    C171    C    0.49887   0.75408   0.29910   1.000
    C172    C    0.41669   0.13932   0.97900   1.000
    C173    C    0.41663   0.63916   0.97957   1.000
    C174    C    0.91636   0.13931   0.97936   1.000
    C175    C    0.91628   0.63912   0.97931   1.000
    C176    C    0.43851   0.42263   0.43050   1.000
    C177    C    0.43853   0.92258   0.43051   1.000
    C178    C    0.93852   0.42257   0.43036   1.000
    C179    C    0.93854   0.92251   0.43040   1.000
    C180    C    0.39165   0.42728   0.46595   1.000
    C181    C    0.39166   0.92725   0.46589   1.000
    C182    C    0.89167   0.42720   0.46581   1.000
    C183    C    0.89169   0.92723   0.46592   1.000
    C184    C    0.32983   0.40293   0.39465   1.000
    C185    C    0.32985   0.90289   0.39457   1.000
    C186    C    0.82985   0.40282   0.39452   1.000
    C187    C    0.82987   0.90288   0.39463   1.000
    C188    C    0.31802   0.37669   0.29125   1.000
    C189    C    0.31806   0.87664   0.29117   1.000
    C190    C    0.81803   0.37659   0.29111   1.000
    C191    C    0.81805   0.87661   0.29122   1.000
    C192    C    0.36707   0.37333   0.26128   1.000
    C193    C    0.36713   0.87329   0.26124   1.000
    C194    C    0.86708   0.37327   0.26112   1.000
    C195    C    0.86710   0.87320   0.26124   1.000
    C196    C    0.40905   0.46182   0.57890   1.000
    C197    C    0.40901   0.96178   0.57888   1.000
    C198    C    0.90909   0.46174   0.57884   1.000
    C199    C    0.90911   0.96181   0.57894   1.000
    C200    C    0.25755   0.04100   0.36961   1.000
    C201    C    0.25760   0.54105   0.36959   1.000
    C202    C    0.75746   0.04096   0.36950   1.000
    C203    C    0.75745   0.54085   0.36945   1.000
    C204    C    0.32220   0.05605   0.40666   1.000
    C205    C    0.32224   0.55604   0.40659   1.000
    C206    C    0.82211   0.05603   0.40650   1.000
    C207    C    0.82210   0.55588   0.40647   1.000
    C208    C    0.34922   0.04263   0.33641   1.000
    C209    C    0.34923   0.54257   0.33630   1.000
    C210    C    0.84913   0.04260   0.33630   1.000
    C211    C    0.84911   0.54246   0.33621   1.000
    C212    C    0.31012   0.01479   0.23284   1.000
    C213    C    0.31011   0.51478   0.23274   1.000
    C214    C    0.81003   0.01474   0.23273   1.000
    C215    C    0.81000   0.51466   0.23265   1.000
    C216    C    0.24589   0.50101   0.20100   1.000
    C217    C    0.24590   0.00000   0.20104   1.000
    C218    C    0.74578   0.50087   0.20088   1.000
    C219    C    0.74580   0.00000   0.20094   1.000
    C220    C    0.36090   0.08376   0.52075   1.000
    C221    C    0.36098   0.58370   0.52067   1.000
    C222    C    0.86078   0.08375   0.52060   1.000
    C223    C    0.86078   0.58356   0.52050   1.000
    C224    C    0.42249   0.43861   0.93043   1.000
    C225    C    0.42250   0.93859   0.93039   1.000
    C226    C    0.92256   0.43860   0.93040   1.000
    C227    C    0.92248   0.93862   0.93049   1.000
    C228    C    0.42697   0.39167   0.96574   1.000
    C229    C    0.42706   0.89169   0.96577   1.000
    C230    C    0.92720   0.39171   0.96577   1.000
    C231    C    0.92713   0.89173   0.96587   1.000
    C232    C    0.40266   0.32993   0.89434   1.000
    C233    C    0.40274   0.82993   0.89441   1.000
    C234    C    0.90288   0.32994   0.89443   1.000
    C235    C    0.90282   0.82997   0.89452   1.000
    C236    C    0.37660   0.31826   0.79095   1.000
    C237    C    0.37663   0.81822   0.79101   1.000
    C238    C    0.87667   0.31822   0.79103   1.000
    C239    C    0.87664   0.81825   0.79111   1.000
    C240    C    0.37336   0.36739   0.76110   1.000
    C241    C    0.37336   0.86732   0.76108   1.000
    C242    C    0.87333   0.36732   0.76111   1.000
    C243    C    0.87329   0.86735   0.76120   1.000
    C244    C    0.46129   0.40889   0.07876   1.000
    C245    C    0.46146   0.90900   0.07881   1.000
    C246    C    0.96171   0.40899   0.07877   1.000
    C247    C    0.96163   0.90903   0.07889   1.000
    C248    C    0.04110   0.25760   0.86963   1.000
    C249    C    0.04104   0.75744   0.86956   1.000
    C250    C    0.54099   0.25755   0.86946   1.000
    C251    C    0.54097   0.75744   0.86947   1.000
    C252    C    0.05606   0.32223   0.90663   1.000
    C253    C    0.05598   0.82206   0.90658   1.000
    C254    C    0.55584   0.32217   0.90640   1.000
    C255    C    0.55581   0.82205   0.90646   1.000
    C256    C    0.04261   0.34926   0.83634   1.000
    C257    C    0.04255   0.84911   0.83631   1.000
    C258    C    0.54239   0.34918   0.83607   1.000
    C259    C    0.54241   0.84908   0.83617   1.000
    C260    C    0.01485   0.31020   0.73278   1.000
    C261    C    0.01480   0.81006   0.73274   1.000
    C262    C    0.51472   0.31009   0.73252   1.000
    C263    C    0.51477   0.81001   0.73261   1.000
    C264    C    0.50109   0.24590   0.70084   1.000
    C265    C    0.50116   0.74582   0.70088   1.000
    C266    C    0.00000   0.24601   0.70104   1.000
    C267    C    0.00000   0.74586   0.70098   1.000
    C268    C    0.08368   0.36086   0.02070   1.000
    C269    C    0.08360   0.86067   0.02065   1.000
    C270    C    0.58333   0.36081   0.02044   1.000
    C271    C    0.58327   0.86066   0.02052   1.000
    C272    C    0.06142   0.07747   0.56953   1.000
    C273    C    0.06144   0.57741   0.56965   1.000
    C274    C    0.56143   0.07740   0.56950   1.000
    C275    C    0.56145   0.57735   0.56948   1.000
    C276    C    0.10826   0.07275   0.53409   1.000
    C277    C    0.10829   0.57278   0.53420   1.000
    C278    C    0.60830   0.07273   0.53412   1.000
    C279    C    0.60831   0.57269   0.53406   1.000
    C280    C    0.17009   0.09710   0.60538   1.000
    C281    C    0.17011   0.59716   0.60540   1.000
    C282    C    0.67011   0.09710   0.60545   1.000
    C283    C    0.67013   0.59704   0.60536   1.000
    C284    C    0.18190   0.12337   0.70879   1.000
    C285    C    0.18193   0.62339   0.70890   1.000
    C286    C    0.68190   0.12334   0.70884   1.000
    C287    C    0.68194   0.62329   0.70877   1.000
    C288    C    0.13285   0.12677   0.73877   1.000
    C289    C    0.13288   0.62671   0.73889   1.000
    C290    C    0.63283   0.12668   0.73877   1.000
    C291    C    0.63288   0.62665   0.73870   1.000
    C292    C    0.09084   0.03817   0.42107   1.000
    C293    C    0.09087   0.53824   0.42110   1.000
    C294    C    0.59096   0.03820   0.42113   1.000
    C295    C    0.59091   0.53815   0.42105   1.000
    C296    C    0.24250   0.45912   0.63056   1.000
    C297    C    0.24250   0.95902   0.63051   1.000
    C298    C    0.74237   0.45893   0.63042   1.000
    C299    C    0.74241   0.95899   0.63041   1.000
    C300    C    0.17786   0.44409   0.59354   1.000
    C301    C    0.17784   0.94395   0.59347   1.000
    C302    C    0.67772   0.44394   0.59342   1.000
    C303    C    0.67776   0.94393   0.59335   1.000
    C304    C    0.15085   0.45752   0.66380   1.000
    C305    C    0.15082   0.95738   0.66371   1.000
    C306    C    0.65073   0.45740   0.66371   1.000
    C307    C    0.65074   0.95735   0.66360   1.000
    C308    C    0.18996   0.48532   0.76736   1.000
    C309    C    0.18993   0.98524   0.76728   1.000
    C310    C    0.68985   0.48520   0.76720   1.000
    C311    C    0.68984   0.98519   0.76717   1.000
    C312    C    0.25416   0.99906   0.79907   1.000
    C313    C    0.25418   0.49911   0.79913   1.000
    C314    C    0.75406   0.99900   0.79897   1.000
    C315    C    0.75407   0.49896   0.79901   1.000
    C316    C    0.13917   0.41641   0.47944   1.000
    C317    C    0.13917   0.91623   0.47937   1.000
    C318    C    0.63898   0.41627   0.47934   1.000
    C319    C    0.63906   0.91622   0.47926   1.000
    C320    C    0.15318   0.26479   0.31071   1.000
    C321    C    0.15319   0.76483   0.31077   1.000
    C322    C    0.65317   0.26482   0.31080   1.000
    C323    C    0.65322   0.76477   0.31091   1.000
    C324    C    0.00671   0.15618   0.36774   1.000
    C325    C    0.00666   0.65603   0.36769   1.000
    C326    C    0.50668   0.15625   0.36791   1.000
    C327    C    0.50677   0.65619   0.36801   1.000
    C328    C    0.23487   0.34676   0.18949   1.000
    C329    C    0.23491   0.84671   0.18939   1.000
    C330    C    0.73487   0.34663   0.18935   1.000
    C331    C    0.73489   0.84668   0.18946   1.000
    C332    C    0.34381   0.49330   0.13229   1.000
    C333    C    0.34386   0.99331   0.13246   1.000
    C334    C    0.84370   0.49320   0.13220   1.000
    C335    C    0.84375   0.99324   0.13232   1.000
    C336    C    0.34673   0.23521   0.68910   1.000
    C337    C    0.34679   0.73516   0.68921   1.000
    C338    C    0.84677   0.23515   0.68924   1.000
    C339    C    0.84678   0.73519   0.68930   1.000
    C340    C    0.49319   0.34378   0.63199   1.000
    C341    C    0.49328   0.84373   0.63210   1.000
    C342    C    0.99330   0.34395   0.63232   1.000
    C343    C    0.99325   0.84380   0.63220   1.000
    C344    C    0.26506   0.15330   0.81055   1.000
    C345    C    0.26509   0.65335   0.81066   1.000
    C346    C    0.76505   0.15327   0.81060   1.000
    C347    C    0.76509   0.65322   0.81053   1.000
    C348    C    0.15621   0.00674   0.86769   1.000
    C349    C    0.15626   0.50678   0.86781   1.000
    C350    C    0.65610   0.00667   0.86755   1.000
    C351    C    0.65615   0.50667   0.86771   1.000
    C352    C    0.10455   0.07332   0.16929   1.000
    C353    C    0.10450   0.57335   0.16930   1.000
    C354    C    0.60446   0.07335   0.16941   1.000
    C355    C    0.60444   0.57329   0.16935   1.000
    C356    C    0.48546   0.27978   0.23087   1.000
    C357    C    0.48549   0.77968   0.23088   1.000
    C358    C    0.98553   0.27977   0.23079   1.000
    C359    C    0.98547   0.77961   0.23073   1.000
    C360    C    0.42643   0.39551   0.33076   1.000
    C361    C    0.42649   0.89546   0.33074   1.000
    C362    C    0.92645   0.39547   0.33058   1.000
    C363    C    0.92647   0.89536   0.33070   1.000
    C364    C    0.22028   0.01431   0.26926   1.000
    C365    C    0.22030   0.51438   0.26925   1.000
    C366    C    0.72019   0.01426   0.26915   1.000
    C367    C    0.72016   0.51418   0.26910   1.000
    C368    C    0.39552   0.42669   0.83066   1.000
    C369    C    0.39550   0.92663   0.83060   1.000
    C370    C    0.89546   0.42663   0.83062   1.000
    C371    C    0.89541   0.92666   0.83072   1.000
    C372    C    0.01449   0.22037   0.76929   1.000
    C373    C    0.01444   0.72022   0.76921   1.000
    C374    C    0.51446   0.22030   0.76913   1.000
    C375    C    0.51449   0.72020   0.76914   1.000
    C376    C    0.07349   0.10462   0.66931   1.000
    C377    C    0.07351   0.60451   0.66943   1.000
    C378    C    0.57347   0.10452   0.66927   1.000
    C379    C    0.57352   0.60447   0.66926   1.000
    C380    C    0.27979   0.48579   0.73090   1.000
    C381    C    0.27977   0.98572   0.73086   1.000
    C382    C    0.77966   0.48561   0.73070   1.000
    C383    C    0.77968   0.98567   0.73076   1.000
    C384    C    0.50107   0.03753   0.86936   1.000
    C385    C    0.50103   0.53775   0.86940   1.000
    C386    C    0.00000   0.03751   0.86930   1.000
    C387    C    0.00000   0.53756   0.86943   1.000
    C388    C    0.04951   0.13195   0.88856   1.000
    C389    C    0.04942   0.63205   0.88873   1.000
    C390    C    0.54974   0.13201   0.88870   1.000
    C391    C    0.55017   0.63205   0.88876   1.000
    C392    C    0.40926   0.16960   0.92389   1.000
    C393    C    0.40914   0.66941   0.92392   1.000
    C394    C    0.90888   0.16958   0.92374   1.000
    C395    C    0.90880   0.66937   0.92367   1.000
    C396    C    0.40465   0.08070   0.94975   1.000
    C397    C    0.40463   0.58055   0.94985   1.000
    C398    C    0.90424   0.08069   0.94960   1.000
    C399    C    0.90416   0.58050   0.94956   1.000
    C400    C    0.46247   0.99924   0.63060   1.000
    C401    C    0.46259   0.49908   0.63072   1.000
    C402    C    0.96255   0.99933   0.63050   1.000
    C403    C    0.96263   0.49905   0.63054   1.000
    C404    C    0.36797   0.45087   0.61151   1.000
    C405    C    0.36797   0.95064   0.61140   1.000
    C406    C    0.86805   0.45074   0.61142   1.000
    C407    C    0.86817   0.95063   0.61161   1.000
    C408    C    0.33067   0.09127   0.57639   1.000
    C409    C    0.33081   0.59158   0.57640   1.000
    C410    C    0.83052   0.09122   0.57623   1.000
    C411    C    0.83056   0.59132   0.57621   1.000
    C412    C    0.41954   0.09591   0.55051   1.000
    C413    C    0.41960   0.59544   0.55030   1.000
    C414    C    0.91943   0.09594   0.55044   1.000
    C415    C    0.91941   0.59542   0.55020   1.000
    C416    C    0.99918   0.46243   0.13058   1.000
    C417    C    0.99912   0.96247   0.13063   1.000
    C418    C    0.49893   0.46223   0.13061   1.000
    C419    C    0.49889   0.96244   0.13065   1.000
    C420    C    0.44979   0.36793   0.11125   1.000
    C421    C    0.45021   0.86796   0.11131   1.000
    C422    C    0.95055   0.36794   0.11128   1.000
    C423    C    0.95045   0.86802   0.11145   1.000
    C424    C    0.09117   0.33061   0.07634   1.000
    C425    C    0.09108   0.83040   0.07627   1.000
    C426    C    0.59081   0.33056   0.07609   1.000
    C427    C    0.59069   0.83038   0.07612   1.000
    C428    C    0.09580   0.41948   0.05045   1.000
    C429    C    0.09571   0.91929   0.05041   1.000
    C430    C    0.59533   0.41943   0.05016   1.000
    C431    C    0.59531   0.91927   0.05027   1.000
    C432    C    0.03733   0.50093   0.36947   1.000
    C433    C    0.03741   0.00000   0.36951   1.000
    C434    C    0.53736   0.50089   0.36930   1.000
    C435    C    0.53749   0.00000   0.36941   1.000
    C436    C    0.13178   0.04935   0.38839   1.000
    C437    C    0.13191   0.54924   0.38850   1.000
    C438    C    0.63199   0.04934   0.38861   1.000
    C439    C    0.63199   0.54909   0.38850   1.000
    C440    C    0.16939   0.40865   0.42300   1.000
    C441    C    0.16943   0.90875   0.42378   1.000
    C442    C    0.66915   0.40840   0.42360   1.000
    C443    C    0.66929   0.90871   0.42362   1.000
    C444    C    0.08054   0.40456   0.44973   1.000
    C445    C    0.08053   0.90404   0.44957   1.000
    C446    C    0.58037   0.40454   0.44971   1.000
    C447    C    0.58042   0.90407   0.44950   1.000
    C448    C    0.40114   0.09906   0.75009   1.000
    C449    C    0.40126   0.59924   0.75013   1.000
    C450    C    0.90105   0.09908   0.75003   1.000
    C451    C    0.90104   0.59911   0.75001   1.000
    C452    C    0.09892   0.40087   0.25000   1.000
    C453    C    0.09891   0.90089   0.24998   1.000
    C454    C    0.59869   0.40074   0.24980   1.000
    C455    C    0.59882   0.90092   0.24992   1.000
    O456    O    0.06817   0.03706   0.04291   1.000
    O457    O    0.56815   0.53708   0.04299   1.000
    O458    O    0.56814   0.03710   0.04304   1.000
    O459    O    0.06810   0.53709   0.04304   1.000
    O460    O    0.58933   0.39012   0.03530   1.000
    O461    O    0.58707   0.34569   0.04827   1.000
    O462    O    0.56958   0.34149   0.96342   1.000
    O463    O    0.58929   0.88997   0.03540   1.000
    O464    O    0.58698   0.84552   0.04832   1.000
    O465    O    0.56954   0.84136   0.96349   1.000
    O466    O    0.08966   0.88998   0.03553   1.000
    O467    O    0.08734   0.84554   0.04846   1.000
    O468    O    0.06979   0.84137   0.96362   1.000
    O469    O    0.08974   0.39017   0.03558   1.000
    O470    O    0.08743   0.34574   0.04852   1.000
    O471    O    0.06987   0.34155   0.96367   1.000
    O472    O    0.07515   0.08480   0.05183   1.000
    O473    O    0.08498   0.13913   0.06982   1.000
    O474    O    0.05558   0.09960   0.97763   1.000
    O475    O    0.57518   0.08484   0.05192   1.000
    O476    O    0.58506   0.13916   0.06992   1.000
    O477    O    0.55570   0.09963   0.97772   1.000
    O478    O    0.07508   0.58483   0.05193   1.000
    O479    O    0.08492   0.63916   0.06991   1.000
    O480    O    0.05551   0.59964   0.97772   1.000
    O481    O    0.57523   0.58484   0.05193   1.000
    O482    O    0.58514   0.63918   0.06998   1.000
    O483    O    0.55583   0.59970   0.97776   1.000
    O484    O    0.60219   0.45449   0.13400   1.000
    O485    O    0.60217   0.95446   0.13409   1.000
    O486    O    0.10244   0.95446   0.13415   1.000
    O487    O    0.10251   0.45458   0.13423   1.000
    O488    O    0.09101   0.06734   0.11941   1.000
    O489    O    0.59096   0.56733   0.11947   1.000
    O490    O    0.59096   0.06737   0.11951   1.000
    O491    O    0.09095   0.56737   0.11946   1.000
    O492    O    0.95416   0.75372   0.10418   1.000
    O493    O    0.95423   0.25389   0.10429   1.000
    O494    O    0.45427   0.25388   0.10436   1.000
    O495    O    0.45425   0.75376   0.10437   1.000
    O496    O    0.45554   0.38841   0.09501   1.000
    O497    O    0.48011   0.43556   0.10469   1.000
    O498    O    0.44413   0.40028   0.02225   1.000
    O499    O    0.95613   0.38846   0.09503   1.000
    O500    O    0.98044   0.43571   0.10468   1.000
    O501    O    0.94445   0.40035   0.02227   1.000
    O502    O    0.45583   0.88848   0.09506   1.000
    O503    O    0.48017   0.93572   0.10473   1.000
    O504    O    0.44426   0.90035   0.02229   1.000
    O505    O    0.95604   0.88853   0.09517   1.000
    O506    O    0.98038   0.93575   0.10476   1.000
    O507    O    0.94438   0.90038   0.02238   1.000
    O508    O    0.09569   0.18884   0.09295   1.000
    O509    O    0.09563   0.68887   0.09303   1.000
    O510    O    0.59580   0.18887   0.09305   1.000
    O511    O    0.59590   0.68889   0.09315   1.000
    O512    O    0.95139   0.71006   0.11184   1.000
    O513    O    0.95063   0.66424   0.12853   1.000
    O514    O    0.93009   0.65844   0.03635   1.000
    O515    O    0.95145   0.21023   0.11194   1.000
    O516    O    0.95069   0.16439   0.12857   1.000
    O517    O    0.93017   0.15861   0.03640   1.000
    O518    O    0.45157   0.21023   0.11205   1.000
    O519    O    0.45085   0.16441   0.12868   1.000
    O520    O    0.43042   0.15862   0.03628   1.000
    O521    O    0.45154   0.71012   0.11209   1.000
    O522    O    0.45084   0.66430   0.12878   1.000
    O523    O    0.43037   0.65849   0.03659   1.000
    O524    O    0.11023   0.17587   0.15719   1.000
    O525    O    0.11019   0.67590   0.15728   1.000
    O526    O    0.61027   0.17590   0.15730   1.000
    O527    O    0.61033   0.67588   0.15738   1.000
    O528    O    0.47986   0.37939   0.19659   1.000
    O529    O    0.98035   0.37940   0.19666   1.000
    O530    O    0.48013   0.87935   0.19664   1.000
    O531    O    0.98030   0.87935   0.19675   1.000
    O532    O    0.72990   0.48958   0.16065   1.000
    O533    O    0.72994   0.98915   0.16071   1.000
    O534    O    0.23001   0.48972   0.16077   1.000
    O535    O    0.23003   0.98918   0.16081   1.000
    O536    O    0.97217   0.76099   0.18052   1.000
    O537    O    0.97223   0.26115   0.18062   1.000
    O538    O    0.47222   0.26116   0.18071   1.000
    O539    O    0.47223   0.76105   0.18072   1.000
    O540    O    0.05420   0.47605   0.17429   1.000
    O541    O    0.55399   0.47589   0.17423   1.000
    O542    O    0.05414   0.97605   0.17426   1.000
    O543    O    0.55396   0.97605   0.17428   1.000
    O544    O    0.82685   0.50393   0.18243   1.000
    O545    O    0.32696   0.50404   0.18252   1.000
    O546    O    0.82689   0.00399   0.18253   1.000
    O547    O    0.32699   0.00405   0.18265   1.000
    O548    O    0.95200   0.62561   0.15033   1.000
    O549    O    0.95207   0.12576   0.15037   1.000
    O550    O    0.45225   0.12579   0.15049   1.000
    O551    O    0.45226   0.62570   0.15062   1.000
    O552    O    0.97123   0.67025   0.21545   1.000
    O553    O    0.97129   0.17040   0.21549   1.000
    O554    O    0.47137   0.17043   0.21560   1.000
    O555    O    0.47140   0.67035   0.21572   1.000
    O556    O    0.10686   0.03148   0.19359   1.000
    O557    O    0.11561   0.10297   0.20405   1.000
    O558    O    0.10686   0.53152   0.19365   1.000
    O559    O    0.11556   0.60300   0.20365   1.000
    O560    O    0.60674   0.53142   0.19360   1.000
    O561    O    0.61552   0.60294   0.20414   1.000
    O562    O    0.60675   0.03150   0.19366   1.000
    O563    O    0.61553   0.10300   0.20417   1.000
    O564    O    0.86326   0.36331   0.22106   1.000
    O565    O    0.86328   0.86323   0.22117   1.000
    O566    O    0.36333   0.86334   0.22119   1.000
    O567    O    0.36327   0.36338   0.22122   1.000
    O568    O    0.59859   0.38463   0.21690   1.000
    O569    O    0.59867   0.88476   0.21696   1.000
    O570    O    0.09883   0.38476   0.21709   1.000
    O571    O    0.09882   0.88475   0.21710   1.000
    O572    O    0.77645   0.36161   0.24023   1.000
    O573    O    0.27649   0.86168   0.24028   1.000
    O574    O    0.77647   0.86165   0.24034   1.000
    O575    O    0.27644   0.36172   0.24037   1.000
    O576    O    0.77789   0.50776   0.21677   1.000
    O577    O    0.73297   0.50753   0.23499   1.000
    O578    O    0.77792   0.00737   0.21684   1.000
    O579    O    0.73299   0.00713   0.23505   1.000
    O580    O    0.27800   0.50790   0.21687   1.000
    O581    O    0.23310   0.50769   0.23513   1.000
    O582    O    0.27801   0.00740   0.21694   1.000
    O583    O    0.23309   0.00716   0.23515   1.000
    O584    O    0.12499   0.15717   0.22385   1.000
    O585    O    0.13825   0.22326   0.25980   1.000
    O586    O    0.12496   0.65721   0.22349   1.000
    O587    O    0.13824   0.72329   0.25988   1.000
    O588    O    0.62497   0.15721   0.22397   1.000
    O589    O    0.63825   0.22329   0.25990   1.000
    O590    O    0.62498   0.65715   0.22400   1.000
    O591    O    0.63829   0.72324   0.25999   1.000
    O592    O    0.66461   0.50187   0.24347   1.000
    O593    O    0.62052   0.51932   0.30317   1.000
    O594    O    0.16472   0.00197   0.24358   1.000
    O595    O    0.12047   0.01949   0.30314   1.000
    O596    O    0.66461   0.00195   0.24353   1.000
    O597    O    0.62052   0.01950   0.30326   1.000
    O598    O    0.16476   0.50203   0.24363   1.000
    O599    O    0.12057   0.51946   0.30325   1.000
    O600    O    0.99781   0.83515   0.25639   1.000
    O601    O    0.99216   0.76679   0.26485   1.000
    O602    O    0.99783   0.33532   0.25642   1.000
    O603    O    0.99221   0.26694   0.26491   1.000
    O604    O    0.49770   0.33532   0.25640   1.000
    O605    O    0.49213   0.26697   0.26500   1.000
    O606    O    0.49777   0.83521   0.25642   1.000
    O607    O    0.49218   0.76688   0.26499   1.000
    O608    O    0.82955   0.52856   0.28443   1.000
    O609    O    0.82958   0.02867   0.28452   1.000
    O610    O    0.32967   0.52868   0.28452   1.000
    O611    O    0.32967   0.02871   0.28463   1.000
    O612    O    0.13658   0.63644   0.27851   1.000
    O613    O    0.13660   0.13640   0.27887   1.000
    O614    O    0.63650   0.63634   0.27897   1.000
    O615    O    0.63652   0.13643   0.27899   1.000
    O616    O    0.61483   0.40078   0.28270   1.000
    O617    O    0.61496   0.90099   0.28283   1.000
    O618    O    0.11506   0.90098   0.28290   1.000
    O619    O    0.11506   0.40094   0.28290   1.000
    O620    O    0.84256   0.37493   0.27612   1.000
    O621    O    0.89677   0.38437   0.29585   1.000
    O622    O    0.34260   0.87497   0.27621   1.000
    O623    O    0.39681   0.88438   0.29599   1.000
    O624    O    0.84258   0.87491   0.27623   1.000
    O625    O    0.89679   0.88428   0.29597   1.000
    O626    O    0.34255   0.37501   0.27627   1.000
    O627    O    0.39675   0.38442   0.29602   1.000
    O628    O    0.99198   0.72188   0.28310   1.000
    O629    O    0.99589   0.67290   0.31746   1.000
    O630    O    0.99203   0.22202   0.28315   1.000
    O631    O    0.99594   0.17305   0.31751   1.000
    O632    O    0.49200   0.22206   0.28327   1.000
    O633    O    0.49593   0.17311   0.31766   1.000
    O634    O    0.49206   0.72199   0.28330   1.000
    O635    O    0.49601   0.67304   0.31775   1.000
    O636    O    0.73881   0.52752   0.31928   1.000
    O637    O    0.73882   0.02761   0.31933   1.000
    O638    O    0.23895   0.52771   0.31942   1.000
    O639    O    0.23891   0.02766   0.31944   1.000
    O640    O    0.46819   0.39318   0.30634   1.000
    O641    O    0.52365   0.44587   0.32561   1.000
    O642    O    0.54515   0.39770   0.36582   1.000
    O643    O    0.46827   0.89310   0.30635   1.000
    O644    O    0.52377   0.94537   0.32569   1.000
    O645    O    0.54524   0.89741   0.36573   1.000
    O646    O    0.96830   0.39317   0.30631   1.000
    O647    O    0.02374   0.44590   0.32576   1.000
    O648    O    0.04534   0.39772   0.36589   1.000
    O649    O    0.96830   0.89302   0.30638   1.000
    O650    O    0.02377   0.94534   0.32578   1.000
    O651    O    0.04533   0.89736   0.36581   1.000
    O652    O    0.82394   0.38970   0.34282   1.000
    O653    O    0.32395   0.88977   0.34287   1.000
    O654    O    0.82396   0.88975   0.34293   1.000
    O655    O    0.32392   0.38981   0.34295   1.000
    O656    O    0.01012   0.76983   0.33920   1.000
    O657    O    0.01015   0.26997   0.33926   1.000
    O658    O    0.51012   0.76995   0.33936   1.000
    O659    O    0.51003   0.27001   0.33936   1.000
    O660    O    0.93248   0.40902   0.38047   1.000
    O661    O    0.93250   0.90894   0.38055   1.000
    O662    O    0.43251   0.90902   0.38063   1.000
    O663    O    0.43247   0.40907   0.38063   1.000
    O664    O    0.87423   0.54783   0.34956   1.000
    O665    O    0.83561   0.54917   0.37134   1.000
    O666    O    0.87425   0.04799   0.34966   1.000
    O667    O    0.83562   0.04931   0.37140   1.000
    O668    O    0.37435   0.54793   0.34965   1.000
    O669    O    0.33574   0.54931   0.37145   1.000
    O670    O    0.37434   0.04801   0.34978   1.000
    O671    O    0.33571   0.04934   0.37154   1.000
    O672    O    0.56413   0.51952   0.39518   1.000
    O673    O    0.56423   0.01910   0.39527   1.000
    O674    O    0.78978   0.54837   0.38796   1.000
    O675    O    0.74612   0.54555   0.39561   1.000
    O676    O    0.06410   0.51958   0.39529   1.000
    O677    O    0.78979   0.04849   0.38800   1.000
    O678    O    0.74612   0.04566   0.39565   1.000
    O679    O    0.06412   0.01909   0.39529   1.000
    O680    O    0.28992   0.54855   0.38809   1.000
    O681    O    0.24627   0.54577   0.39576   1.000
    O682    O    0.28987   0.04853   0.38814   1.000
    O683    O    0.24620   0.04569   0.39576   1.000
    O684    O    0.11131   0.04376   0.40473   1.000
    O685    O    0.11139   0.54374   0.40480   1.000
    O686    O    0.61145   0.54362   0.40478   1.000
    O687    O    0.61147   0.04377   0.40487   1.000
    O688    O    0.81104   0.40426   0.40710   1.000
    O689    O    0.86076   0.41501   0.43017   1.000
    O690    O    0.31103   0.90434   0.40713   1.000
    O691    O    0.36075   0.91507   0.43023   1.000
    O692    O    0.81106   0.90435   0.40720   1.000
    O693    O    0.86078   0.91506   0.43028   1.000
    O694    O    0.31102   0.40439   0.40723   1.000
    O695    O    0.36074   0.41511   0.43030   1.000
    O696    O    0.84144   0.56972   0.46349   1.000
    O697    O    0.84145   0.06989   0.46355   1.000
    O698    O    0.34161   0.56987   0.46363   1.000
    O699    O    0.34155   0.06991   0.46371   1.000
    O700    O    0.59961   0.55542   0.47756   1.000
    O701    O    0.09955   0.05546   0.47758   1.000
    O702    O    0.09958   0.55551   0.47765   1.000
    O703    O    0.59963   0.05547   0.47763   1.000
    O704    O    0.15428   0.41253   0.45122   1.000
    O705    O    0.65406   0.41234   0.45147   1.000
    O706    O    0.65417   0.91247   0.45144   1.000
    O707    O    0.15430   0.91249   0.45158   1.000
    O708    O    0.91509   0.42488   0.44809   1.000
    O709    O    0.96283   0.43190   0.45691   1.000
    O710    O    0.91512   0.92487   0.44816   1.000
    O711    O    0.96285   0.93183   0.45699   1.000
    O712    O    0.41508   0.42495   0.44823   1.000
    O713    O    0.46282   0.43194   0.45707   1.000
    O714    O    0.41510   0.92492   0.44820   1.000
    O715    O    0.46284   0.93190   0.45706   1.000
    O716    O    0.60974   0.91015   0.46438   1.000
    O717    O    0.10985   0.91013   0.46447   1.000
    O718    O    0.60967   0.41040   0.46453   1.000
    O719    O    0.10986   0.41049   0.46459   1.000
    O720    O    0.90038   0.44447   0.52233   1.000
    O721    O    0.40033   0.94451   0.52239   1.000
    O722    O    0.90040   0.94452   0.52243   1.000
    O723    O    0.40035   0.44455   0.52243   1.000
    O724    O    0.65841   0.93007   0.53631   1.000
    O725    O    0.65835   0.43011   0.53638   1.000
    O726    O    0.15851   0.93009   0.53642   1.000
    O727    O    0.15851   0.43025   0.53649   1.000
    O728    O    0.53712   0.06808   0.54294   1.000
    O729    O    0.53714   0.56803   0.54294   1.000
    O730    O    0.03710   0.06815   0.54299   1.000
    O731    O    0.03713   0.56807   0.54310   1.000
    O732    O    0.89010   0.58949   0.53535   1.000
    O733    O    0.84567   0.58744   0.54836   1.000
    O734    O    0.89011   0.08985   0.53552   1.000
    O735    O    0.84565   0.08749   0.54842   1.000
    O736    O    0.39029   0.58957   0.53549   1.000
    O737    O    0.34590   0.58764   0.54854   1.000
    O738    O    0.39022   0.08984   0.53563   1.000
    O739    O    0.34579   0.08752   0.54857   1.000
    O740    O    0.58488   0.57502   0.55177   1.000
    O741    O    0.63922   0.58487   0.56971   1.000
    O742    O    0.08484   0.07511   0.55181   1.000
    O743    O    0.13917   0.08492   0.56974   1.000
    O744    O    0.58486   0.07506   0.55181   1.000
    O745    O    0.63921   0.08491   0.56979   1.000
    O746    O    0.08487   0.57509   0.55193   1.000
    O747    O    0.13920   0.58497   0.56980   1.000
    O748    O    0.95462   0.60227   0.63409   1.000
    O749    O    0.45481   0.60228   0.63420   1.000
    O750    O    0.95462   0.10262   0.63420   1.000
    O751    O    0.45472   0.10257   0.63428   1.000
    O752    O    0.56749   0.59091   0.61937   1.000
    O753    O    0.56745   0.09096   0.61939   1.000
    O754    O    0.06745   0.09104   0.61942   1.000
    O755    O    0.06748   0.59096   0.61954   1.000
    O756    O    0.75370   0.45421   0.60426   1.000
    O757    O    0.75376   0.95429   0.60426   1.000
    O758    O    0.25383   0.95432   0.60436   1.000
    O759    O    0.25384   0.45442   0.60440   1.000
    O760    O    0.88857   0.45624   0.59513   1.000
    O761    O    0.93586   0.48040   0.60469   1.000
    O762    O    0.38849   0.95621   0.59514   1.000
    O763    O    0.43574   0.98051   0.60474   1.000
    O764    O    0.38851   0.45635   0.59521   1.000
    O765    O    0.43582   0.48045   0.60481   1.000
    O766    O    0.88864   0.95622   0.59528   1.000
    O767    O    0.93583   0.98057   0.60472   1.000
    O768    O    0.68894   0.59558   0.59279   1.000
    O769    O    0.18890   0.09563   0.59281   1.000
    O770    O    0.68893   0.09564   0.59289   1.000
    O771    O    0.18892   0.59572   0.59287   1.000
    O772    O    0.71009   0.95146   0.61188   1.000
    O773    O    0.66425   0.95064   0.62848   1.000
    O774    O    0.71004   0.45143   0.61192   1.000
    O775    O    0.66422   0.45067   0.62857   1.000
    O776    O    0.21017   0.95149   0.61199   1.000
    O777    O    0.16433   0.95067   0.62859   1.000
    O778    O    0.21018   0.45161   0.61205   1.000
    O779    O    0.16435   0.45081   0.62867   1.000
    O780    O    0.67603   0.61017   0.65707   1.000
    O781    O    0.17600   0.11023   0.65709   1.000
    O782    O    0.17602   0.61027   0.65715   1.000
    O783    O    0.67601   0.11022   0.65715   1.000
    O784    O    0.37945   0.98048   0.69675   1.000
    O785    O    0.87939   0.48052   0.69671   1.000
    O786    O    0.37944   0.48065   0.69684   1.000
    O787    O    0.87949   0.98049   0.69687   1.000
    O788    O    0.48984   0.23003   0.66062   1.000
    O789    O    0.48993   0.72997   0.66065   1.000
    O790    O    0.98927   0.73001   0.66075   1.000
    O791    O    0.98928   0.23015   0.66081   1.000
    O792    O    0.76105   0.97233   0.68059   1.000
    O793    O    0.76101   0.47227   0.68056   1.000
    O794    O    0.97618   0.05431   0.67423   1.000
    O795    O    0.26113   0.97237   0.68069   1.000
    O796    O    0.97622   0.55408   0.67426   1.000
    O797    O    0.26115   0.47246   0.68073   1.000
    O798    O    0.47619   0.05424   0.67433   1.000
    O799    O    0.47631   0.55410   0.67441   1.000
    O800    O    0.50395   0.32694   0.68226   1.000
    O801    O    0.50403   0.82687   0.68236   1.000
    O802    O    0.00402   0.82693   0.68247   1.000
    O803    O    0.00407   0.32707   0.68255   1.000
    O804    O    0.62562   0.95197   0.65024   1.000
    O805    O    0.12570   0.95199   0.65036   1.000
    O806    O    0.62561   0.45205   0.65036   1.000
    O807    O    0.12573   0.45215   0.65045   1.000
    O808    O    0.67029   0.97127   0.71539   1.000
    O809    O    0.67029   0.47130   0.71546   1.000
    O810    O    0.17038   0.97131   0.71550   1.000
    O811    O    0.17040   0.47142   0.71558   1.000
    O812    O    0.53177   0.60680   0.69368   1.000
    O813    O    0.60320   0.61556   0.70398   1.000
    O814    O    0.53169   0.10688   0.69366   1.000
    O815    O    0.60315   0.11560   0.70402   1.000
    O816    O    0.03165   0.10695   0.69364   1.000
    O817    O    0.10317   0.11570   0.70404   1.000
    O818    O    0.03166   0.60681   0.69370   1.000
    O819    O    0.10319   0.61561   0.70416   1.000
    O820    O    0.36344   0.86355   0.72103   1.000
    O821    O    0.86339   0.36354   0.72106   1.000
    O822    O    0.36346   0.36363   0.72105   1.000
    O823    O    0.86336   0.86358   0.72115   1.000
    O824    O    0.88490   0.09900   0.71712   1.000
    O825    O    0.88490   0.59904   0.71711   1.000
    O826    O    0.38499   0.09899   0.71718   1.000
    O827    O    0.38513   0.59919   0.71724   1.000
    O828    O    0.36167   0.27673   0.74003   1.000
    O829    O    0.36171   0.77669   0.74011   1.000
    O830    O    0.86172   0.27669   0.74014   1.000
    O831    O    0.86171   0.77672   0.74021   1.000
    O832    O    0.50790   0.27799   0.71668   1.000
    O833    O    0.50778   0.23310   0.73499   1.000
    O834    O    0.50796   0.77792   0.71675   1.000
    O835    O    0.50782   0.73301   0.73501   1.000
    O836    O    0.00740   0.77796   0.71686   1.000
    O837    O    0.00722   0.73304   0.73510   1.000
    O838    O    0.00742   0.27810   0.71691   1.000
    O839    O    0.00724   0.23319   0.73517   1.000
    O840    O    0.65741   0.62497   0.72374   1.000
    O841    O    0.72352   0.63826   0.75965   1.000
    O842    O    0.15738   0.12507   0.72378   1.000
    O843    O    0.22348   0.13833   0.75967   1.000
    O844    O    0.65736   0.12501   0.72381   1.000
    O845    O    0.72347   0.13830   0.75972   1.000
    O846    O    0.15740   0.62505   0.72390   1.000
    O847    O    0.22351   0.63837   0.75978   1.000
    O848    O    0.00215   0.16483   0.74363   1.000
    O849    O    0.01966   0.12062   0.80326   1.000
    O850    O    0.00213   0.66466   0.74359   1.000
    O851    O    0.01962   0.62058   0.80335   1.000
    O852    O    0.50218   0.16477   0.74359   1.000
    O853    O    0.51982   0.12063   0.80338   1.000
    O854    O    0.50226   0.66466   0.74362   1.000
    O855    O    0.52009   0.62059   0.80343   1.000
    O856    O    0.83520   0.49795   0.75635   1.000
    O857    O    0.76686   0.49229   0.76486   1.000
    O858    O    0.83524   0.99801   0.75644   1.000
    O859    O    0.76687   0.99233   0.76487   1.000
    O860    O    0.33535   0.99802   0.75648   1.000
    O861    O    0.26696   0.99239   0.76497   1.000
    O862    O    0.33535   0.49811   0.75654   1.000
    O863    O    0.26699   0.49245   0.76502   1.000
    O864    O    0.52855   0.32963   0.78430   1.000
    O865    O    0.52859   0.82955   0.78439   1.000
    O866    O    0.02867   0.82958   0.78453   1.000
    O867    O    0.02873   0.32973   0.78456   1.000
    O868    O    0.63669   0.63660   0.77878   1.000
    O869    O    0.63663   0.13664   0.77883   1.000
    O870    O    0.13667   0.13674   0.77883   1.000
    O871    O    0.13670   0.63667   0.77895   1.000
    O872    O    0.90113   0.61522   0.78293   1.000
    O873    O    0.90114   0.11523   0.78292   1.000
    O874    O    0.40128   0.11522   0.78302   1.000
    O875    O    0.40136   0.61534   0.78307   1.000
    O876    O    0.37499   0.84277   0.77605   1.000
    O877    O    0.38443   0.89697   0.79584   1.000
    O878    O    0.37498   0.34283   0.77603   1.000
    O879    O    0.38444   0.39704   0.79588   1.000
    O880    O    0.87500   0.34277   0.77607   1.000
    O881    O    0.88440   0.39698   0.79587   1.000
    O882    O    0.87496   0.84280   0.77616   1.000
    O883    O    0.88435   0.89701   0.79596   1.000
    O884    O    0.72195   0.99209   0.78307   1.000
    O885    O    0.67297   0.99593   0.81736   1.000
    O886    O    0.72196   0.49208   0.78311   1.000
    O887    O    0.67300   0.49593   0.81746   1.000
    O888    O    0.22204   0.99215   0.78318   1.000
    O889    O    0.17307   0.99599   0.81749   1.000
    O890    O    0.22207   0.49221   0.78325   1.000
    O891    O    0.17311   0.49605   0.81759   1.000
    O892    O    0.52773   0.23892   0.81930   1.000
    O893    O    0.52773   0.73882   0.81931   1.000
    O894    O    0.02774   0.73883   0.81939   1.000
    O895    O    0.02779   0.23899   0.81946   1.000
    O896    O    0.89310   0.46847   0.80631   1.000
    O897    O    0.94537   0.52393   0.82571   1.000
    O898    O    0.89745   0.54540   0.86578   1.000
    O899    O    0.39321   0.96848   0.80635   1.000
    O900    O    0.44600   0.02393   0.82573   1.000
    O901    O    0.39779   0.04551   0.86593   1.000
    O902    O    0.89310   0.96850   0.80642   1.000
    O903    O    0.94540   0.02393   0.82571   1.000
    O904    O    0.89752   0.04552   0.86586   1.000
    O905    O    0.39322   0.46856   0.80642   1.000
    O906    O    0.44597   0.52409   0.82579   1.000
    O907    O    0.39777   0.54549   0.86601   1.000
    O908    O    0.38963   0.32410   0.84265   1.000
    O909    O    0.38968   0.82408   0.84271   1.000
    O910    O    0.88977   0.32408   0.84273   1.000
    O911    O    0.88973   0.82411   0.84282   1.000
    O912    O    0.76993   0.01031   0.83920   1.000
    O913    O    0.76995   0.51026   0.83924   1.000
    O914    O    0.27003   0.01037   0.83930   1.000
    O915    O    0.27006   0.51040   0.83936   1.000
    O916    O    0.40900   0.93261   0.88050   1.000
    O917    O    0.90901   0.43262   0.88051   1.000
    O918    O    0.40900   0.43265   0.88055   1.000
    O919    O    0.90894   0.93264   0.88061   1.000
    O920    O    0.54770   0.37428   0.84939   1.000
    O921    O    0.54912   0.33567   0.87124   1.000
    O922    O    0.54771   0.87419   0.84950   1.000
    O923    O    0.54911   0.83557   0.87132   1.000
    O924    O    0.04789   0.87422   0.84966   1.000
    O925    O    0.04927   0.83559   0.87145   1.000
    O926    O    0.04796   0.37437   0.84968   1.000
    O927    O    0.04934   0.33574   0.87149   1.000
    O928    O    0.01916   0.06422   0.89521   1.000
    O929    O    0.51979   0.06426   0.89528   1.000
    O930    O    0.51985   0.56442   0.89533   1.000
    O931    O    0.01913   0.56428   0.89532   1.000
    O932    O    0.54842   0.28986   0.88793   1.000
    O933    O    0.54571   0.24622   0.89565   1.000
    O934    O    0.54839   0.78974   0.88797   1.000
    O935    O    0.54568   0.74610   0.89565   1.000
    O936    O    0.04851   0.78975   0.88807   1.000
    O937    O    0.04574   0.74609   0.89572   1.000
    O938    O    0.04858   0.28992   0.88813   1.000
    O939    O    0.04580   0.24626   0.89580   1.000
    O940    O    0.04392   0.11145   0.90484   1.000
    O941    O    0.54412   0.11150   0.90495   1.000
    O942    O    0.04384   0.61152   0.90497   1.000
    O943    O    0.54442   0.61157   0.90501   1.000
    O944    O    0.40406   0.31109   0.90687   1.000
    O945    O    0.41481   0.36080   0.93004   1.000
    O946    O    0.40416   0.81110   0.90696   1.000
    O947    O    0.41490   0.86081   0.93009   1.000
    O948    O    0.90433   0.31111   0.90697   1.000
    O949    O    0.91504   0.36082   0.93010   1.000
    O950    O    0.90427   0.81114   0.90707   1.000
    O951    O    0.91498   0.86085   0.93020   1.000
    O952    O    0.91254   0.65424   0.95149   1.000
    O953    O    0.91262   0.15444   0.95155   1.000
    O954    O    0.41297   0.15446   0.95145   1.000
    O955    O    0.41289   0.65429   0.95175   1.000
    O956    O    0.42478   0.91514   0.94808   1.000
    O957    O    0.43182   0.96288   0.95697   1.000
    O958    O    0.92488   0.41515   0.94809   1.000
    O959    O    0.93186   0.46290   0.95697   1.000
    O960    O    0.42473   0.41514   0.94809   1.000
    O961    O    0.43181   0.46290   0.95703   1.000
    O962    O    0.92481   0.91518   0.94818   1.000
    O963    O    0.93179   0.96292   0.95707   1.000
    O964    O    0.91022   0.60981   0.96444   1.000
    O965    O    0.91030   0.11000   0.96448   1.000
    O966    O    0.41067   0.11001   0.96438   1.000
    O967    O    0.41063   0.60986   0.96471   1.000
    O968    O    0.39603   0.05469   0.76610   1.000
    O969    O    0.44552   0.10415   0.73407   1.000
    O970    O    0.39609   0.55483   0.76615   1.000
    O971    O    0.44564   0.60418   0.73411   1.000
    O972    O    0.89592   0.05471   0.76608   1.000
    O973    O    0.94543   0.10419   0.73400   1.000
    O974    O    0.89589   0.55471   0.76600   1.000
    O975    O    0.94543   0.60411   0.73399   1.000
    O976    O    0.10407   0.44527   0.23400   1.000
    O977    O    0.05453   0.39587   0.26602   1.000
    O978    O    0.10404   0.94526   0.23394   1.000
    O979    O    0.05453   0.89579   0.26602   1.000
    O980    O    0.60387   0.44514   0.23382   1.000
    O981    O    0.55432   0.39580   0.26586   1.000
    O982    O    0.60393   0.94529   0.23392   1.000
    O983    O    0.55444   0.89583   0.26594   1.000
loop_
    _geom_bond_atom_site_label_1
    _geom_bond_atom_site_label_2
    _geom_bond_distance
    _geom_bond_site_symmetry_2
    _ccdc_geom_bond_type
    C20    O456      0.54435      .   S
    C128   O456      0.54435      .   S
    C23    O457      0.54422      .   S
    C131   O457      0.54422      .   S
    C22    O458      0.54418      .   S
    C130   O458      0.54418      .   S
    C21    O459      0.54421      .   S
    C129   O459      0.54421      .   S
    C270   O460      0.63647      .   S
    C430   O460      0.63647      .   S
    C270   O461      0.63604      .   S
    C426   O461      0.63604      .   S
    C270   O462      0.75731  1_554   S
    C254   O462      0.75731      .   S
    C271   O463      0.63645      .   S
    C431   O463      0.63645      .   S
    C271   O464      0.63607      .   S
    C427   O464      0.63607      .   S
    C271   O465      0.75738  1_554   S
    C255   O465      0.75738      .   S
    C269   O466      0.63646      .   S
    C429   O466      0.63646      .   S
    C269   O467      0.63607      .   S
    C425   O467      0.63607      .   S
    C269   O468      0.75738  1_554   S
    C253   O468      0.75738      .   S
    C268   O469      0.63646      .   S
    C428   O469      0.63646      .   S
    C268   O470      0.63600      .   S
    C424   O470      0.63600      .   S
    C268   O471      0.75743  1_554   S
    C252   O471      0.75743      .   S
    C132   O472      0.69875      .   S
    C128   O472      0.69875      .   S
    C132   O473      0.69963      .   S
    C136   O473      0.69963      .   S
    C132   O474      0.75679  1_554   S
    C148   O474      0.75679      .   S
    C134   O475      0.69862      .   S
    C130   O475      0.69862      .   S
    C134   O476      0.69963      .   S
    C138   O476      0.69963      .   S
    C134   O477      0.75678  1_554   S
    C150   O477      0.75678      .   S
    C133   O478      0.69874      .   S
    C129   O478      0.69874      .   S
    C133   O479      0.69962      .   S
    C137   O479      0.69962      .   S
    C133   O480      0.75698  1_554   S
    C149   O480      0.75698      .   S
    C135   O481      0.69877      .   S
    C131   O481      0.69877      .   S
    C135   O482      0.69960      .   S
    C139   O482      0.69960      .   S
    C135   O483      0.75672  1_554   S
    C151   O483      0.75672      .   S
    C430   O484      1.20892      .   S
    C10    O484      1.20892      .   S
    C431   O485      1.20960      .   S
    C11    O485      1.20960      .   S
    C429   O486      1.20958      .   S
    C9     O486      1.20958      .   S
    C428   O487      1.20955      .   S
    C8     O487      1.20955      .   S
    C128   O488      0.67245      .   S
    C352   O488      0.67245      .   S
    C131   O489      0.67249      .   S
    C355   O489      0.67249      .   S
    C130   O490      0.67267      .   S
    C354   O490      0.67267      .   S
    C129   O491      0.67190      .   S
    C353   O491      0.67190      .   S
    C35    O492      0.54322      .   S
    C155   O492      0.54322      .   S
    C34    O493      0.54375      .   S
    C154   O493      0.54375      .   S
    C32    O494      0.54379      .   S
    C152   O494      0.54379      .   S
    C33    O495      0.54382      .   S
    C153   O495      0.54382      .   S
    C244   O496      0.63804      .   S
    C420   O496      0.63804      .   S
    C244   O497      0.63151      .   S
    C418   O497      0.63151      .   S
    C244   O498      0.75673      .   S
    C228   O498      0.75673  1_556   S
    C246   O499      0.63802      .   S
    C422   O499      0.63802      .   S
    C246   O500      0.63164      .   S
    C416   O500      0.63164      .   S
    C246   O501      0.75672      .   S
    C230   O501      0.75672  1_556   S
    C245   O502      0.63807      .   S
    C421   O502      0.63807      .   S
    C245   O503      0.63155      .   S
    C419   O503      0.63155      .   S
    C245   O504      0.75679      .   S
    C229   O504      0.75679  1_556   S
    C247   O505      0.63798      .   S
    C423   O505      0.63798      .   S
    C247   O506      0.63165      .   S
    C417   O506      0.63165      .   S
    C247   O507      0.75679      .   S
    C231   O507      0.75679  1_556   S
    C24    O508      0.54494      .   S
    C136   O508      0.54494      .   S
    C25    O509      0.54496      .   S
    C137   O509      0.54496      .   S
    C26    O510      0.54496      .   S
    C138   O510      0.54496      .   S
    C27    O511      0.54500      .   S
    C139   O511      0.54500      .   S
    C159   O512      0.69881      .   S
    C155   O512      0.69881      .   S
    C159   O513      0.69937      .   S
    C163   O513      0.69937      .   S
    C159   O514      0.75743      .   S
    C175   O514      0.75743  1_556   S
    C158   O515      0.69875      .   S
    C154   O515      0.69875      .   S
    C158   O516      0.69941      .   S
    C162   O516      0.69941      .   S
    C158   O517      0.75738      .   S
    C174   O517      0.75738  1_556   S
    C156   O518      0.69874      .   S
    C152   O518      0.69874      .   S
    C156   O519      0.69907      .   S
    C160   O519      0.69907      .   S
    C156   O520      0.76036      .   S
    C172   O520      0.76036  1_556   S
    C157   O521      0.69876      .   S
    C153   O521      0.69876      .   S
    C157   O522      0.69937      .   S
    C161   O522      0.69937      .   S
    C157   O523      0.75732      .   S
    C173   O523      0.75732  1_556   S
    C136   O524      0.69769      .   S
    C140   O524      0.69769      .   S
    C137   O525      0.69769      .   S
    C141   O525      0.69769      .   S
    C138   O526      0.69766      .   S
    C142   O526      0.69766      .   S
    C139   O527      0.69770      .   S
    C143   O527      0.69770      .   S
    C420   O528      1.16622      .   S
    C14    O528      1.16622      .   S
    C422   O529      1.16544      .   S
    C12    O529      1.16544  1_455   S
    C421   O530      1.16573      .   S
    C15    O530      1.16573      .   S
    C423   O531      1.16535      .   S
    C13    O531      1.16535  1_455   S
    C70    O532      0.54504      .   S
    C218   O532      0.54504      .   S
    C71    O533      0.54491      .   S
    C219   O533      0.54491  1_545   S
    C68    O534      0.54509      .   S
    C216   O534      0.54509      .   S
    C69    O535      0.54486      .   S
    C217   O535      0.54486  1_545   S
    C155   O536      0.67365      .   S
    C359   O536      0.67365      .   S
    C154   O537      0.67312      .   S
    C358   O537      0.67312      .   S
    C152   O538      0.67310      .   S
    C356   O538      0.67310      .   S
    C153   O539      0.67308      .   S
    C357   O539      0.67308      .   S
    C416   O540      1.19200  1_655   S
    C8     O540      1.19200      .   S
    C418   O541      1.19255      .   S
    C10    O541      1.19255      .   S
    C417   O542      1.19189  1_655   S
    C9     O542      1.19189      .   S
    C419   O543      1.19301      .   S
    C11    O543      1.19301      .   S
    C334   O544      0.95766      .   S
    C215   O544      0.95766      .   S
    C332   O545      0.95759      .   S
    C213   O545      0.95759      .   S
    C335   O546      0.95761  1_565   S
    C214   O546      0.95761      .   S
    C333   O547      0.95755  1_565   S
    C212   O547      0.95755      .   S
    C39    O548      0.54437      .   S
    C163   O548      0.54437      .   S
    C38    O549      0.54436      .   S
    C162   O549      0.54436      .   S
    C36    O550      0.54440      .   S
    C160   O550      0.54440      .   S
    C37    O551      0.54437      .   S
    C161   O551      0.54437      .   S
    C163   O552      0.69639      .   S
    C167   O552      0.69639      .   S
    C162   O553      0.69638      .   S
    C166   O553      0.69638      .   S
    C160   O554      0.69665      .   S
    C164   O554      0.69665      .   S
    C161   O555      0.69641      .   S
    C165   O555      0.69641      .   S
    C352   O556      1.17726      .   S
    C9     O556      1.17726  1_565   S
    C352   O557      0.67396      .   S
    C144   O557      0.67396      .   S
    C353   O558      1.17761      .   S
    C8     O558      1.17761      .   S
    C353   O559      0.67212      .   S
    C145   O559      0.67212      .   S
    C355   O560      1.17738      .   S
    C10    O560      1.17738      .   S
    C355   O561      0.67399      .   S
    C147   O561      0.67399      .   S
    C354   O562      1.17693      .   S
    C11    O562      1.17693  1_565   S
    C354   O563      0.67395      .   S
    C146   O563      0.67395      .   S
    C58    O564      0.54498      .   S
    C194   O564      0.54498      .   S
    C59    O565      0.54513      .   S
    C195   O565      0.54513      .   S
    C57    O566      0.54500      .   S
    C193   O566      0.54500      .   S
    C56    O567      0.54505      .   S
    C192   O567      0.54505      .   S
    C74    O568      0.51744      .   S
    C454   O568      0.51744      .   S
    C75    O569      0.51829      .   S
    C455   O569      0.51829      .   S
    C72    O570      0.51789      .   S
    C452   O570      0.51789      .   S
    C73    O571      0.51781      .   S
    C453   O571      0.51781      .   S
    C330   O572      0.95505      .   S
    C190   O572      0.95505      .   S
    C329   O573      0.95499      .   S
    C189   O573      0.95499      .   S
    C331   O574      0.95505      .   S
    C191   O574      0.95505      .   S
    C328   O575      0.95498      .   S
    C188   O575      0.95498      .   S
    C218   O576      0.69750      .   S
    C215   O576      0.69750      .   S
    C218   O577      0.67366      .   S
    C367   O577      0.67366      .   S
    C219   O578      0.69738      .   S
    C214   O578      0.69738      .   S
    C219   O579      0.67410      .   S
    C366   O579      0.67410      .   S
    C216   O580      0.69749      .   S
    C213   O580      0.69749      .   S
    C216   O581      0.67372      .   S
    C365   O581      0.67372      .   S
    C217   O582      0.69738      .   S
    C212   O582      0.69738      .   S
    C217   O583      0.67421      .   S
    C364   O583      0.67421      .   S
    C140   O584      0.69738      .   S
    C144   O584      0.69738      .   S
    C140   O585      0.95503      .   S
    C320   O585      0.95503      .   S
    C141   O586      0.69333      .   S
    C145   O586      0.69333      .   S
    C141   O587      0.95500      .   S
    C321   O587      0.95500      .   S
    C142   O588      0.69739      .   S
    C146   O588      0.69739      .   S
    C142   O589      0.95499      .   S
    C322   O589      0.95499      .   S
    C143   O590      0.69735      .   S
    C147   O590      0.69735      .   S
    C143   O591      0.95500      .   S
    C323   O591      0.95500      .   S
    C10    O592      1.21008      .   S
    C367   O592      1.21008      .   S
    C10    O593      1.16518      .   S
    C439   O593      1.16518      .   S
    C9     O594      1.20993  1_565   S
    C364   O594      1.20993      .   S
    C9     O595      1.16546  1_565   S
    C436   O595      1.16546      .   S
    C11    O596      1.21042  1_565   S
    C366   O596      1.21042      .   S
    C11    O597      1.16577  1_565   S
    C438   O597      1.16577      .   S
    C8     O598      1.20963      .   S
    C365   O598      1.20963      .   S
    C8     O599      1.16489      .   S
    C437   O599      1.16489      .   S
    C359   O600      1.20998      .   S
    C13    O600      1.20998  1_455   S
    C359   O601      0.67367      .   S
    C169   O601      0.67367      .   S
    C358   O602      1.21034      .   S
    C12    O602      1.21034  1_455   S
    C358   O603      0.67373      .   S
    C168   O603      0.67373      .   S
    C356   O604      1.21020      .   S
    C14    O604      1.21020      .   S
    C356   O605      0.67370      .   S
    C170   O605      0.67370      .   S
    C357   O606      1.20999      .   S
    C15    O606      1.20999      .   S
    C357   O607      0.67325      .   S
    C171   O607      0.67325      .   S
    C215   O608      0.69638      .   S
    C211   O608      0.69638      .   S
    C214   O609      0.69641      .   S
    C210   O609      0.69641      .   S
    C213   O610      0.69640      .   S
    C209   O610      0.69640      .   S
    C212   O611      0.69639      .   S
    C208   O611      0.69639      .   S
    C145   O612      0.55131      .   S
    C29    O612      0.55131      .   S
    C144   O613      0.54501      .   S
    C28    O613      0.54501      .   S
    C147   O614      0.54502      .   S
    C31    O614      0.54502      .   S
    C146   O615      0.54501      .   S
    C30    O615      0.54501      .   S
    C454   O616      0.51794      .   S
    C102   O616      0.51794      .   S
    C455   O617      0.51793      .   S
    C103   O617      0.51793      .   S
    C453   O618      0.51784      .   S
    C101   O618      0.51784      .   S
    C452   O619      0.51779      .   S
    C100   O619      0.51779      .   S
    C194   O620      0.69736      .   S
    C190   O620      0.69736      .   S
    C194   O621      0.67395      .   S
    C362   O621      0.67395      .   S
    C193   O622      0.69737      .   S
    C189   O622      0.69737      .   S
    C193   O623      0.67395      .   S
    C361   O623      0.67395      .   S
    C195   O624      0.69737      .   S
    C191   O624      0.69737      .   S
    C195   O625      0.67395      .   S
    C363   O625      0.67395      .   S
    C192   O626      0.69735      .   S
    C188   O626      0.69735      .   S
    C192   O627      0.67393      .   S
    C360   O627      0.67393      .   S
    C167   O628      0.69748      .   S
    C169   O628      0.69748      .   S
    C167   O629      0.95760      .   S
    C325   O629      0.95760  1_455   S
    C166   O630      0.69748      .   S
    C168   O630      0.69748      .   S
    C166   O631      0.95763      .   S
    C324   O631      0.95763  1_455   S
    C164   O632      0.69749      .   S
    C170   O632      0.69749      .   S
    C164   O633      0.95764      .   S
    C326   O633      0.95764      .   S
    C165   O634      0.69755      .   S
    C171   O634      0.69755      .   S
    C165   O635      0.95756      .   S
    C327   O635      0.95756      .   S
    C367   O636      0.67318      .   S
    C203   O636      0.67318      .   S
    C366   O637      0.67315      .   S
    C202   O637      0.67315      .   S
    C365   O638      0.67314      .   S
    C201   O638      0.67314      .   S
    C364   O639      0.67313      .   S
    C200   O639      0.67313      .   S
    C14    O640      1.17656      .   S
    C360   O640      1.17656      .   S
    C14    O641      1.19244      .   S
    C434   O641      1.19244      .   S
    C14    O642      1.21008      .   S
    C446   O642      1.21008      .   S
    C15    O643      1.17703      .   S
    C361   O643      1.17703      .   S
    C15    O644      1.18434      .   S
    C435   O644      1.18434  1_545   S
    C15    O645      1.20966      .   S
    C447   O645      1.20966      .   S
    C12    O646      1.17739  1_455   S
    C362   O646      1.17739      .   S
    C12    O647      1.19284      .   S
    C432   O647      1.19284      .   S
    C12    O648      1.20932      .   S
    C444   O648      1.20932      .   S
    C13    O649      1.17765  1_455   S
    C363   O649      1.17765      .   S
    C13    O650      1.18502      .   S
    C433   O650      1.18502  1_545   S
    C13    O651      1.20954      .   S
    C445   O651      1.20954      .   S
    C190   O652      0.69769      .   S
    C186   O652      0.69769      .   S
    C189   O653      0.69770      .   S
    C185   O653      0.69770      .   S
    C191   O654      0.69770      .   S
    C187   O654      0.69770      .   S
    C188   O655      0.69764      .   S
    C184   O655      0.69764      .   S
    C169   O656      0.54506  1_655   S
    C41    O656      0.54506      .   S
    C168   O657      0.54503  1_655   S
    C40    O657      0.54503      .   S
    C171   O658      0.54545      .   S
    C43    O658      0.54545      .   S
    C170   O659      0.54505      .   S
    C42    O659      0.54505      .   S
    C362   O660      0.67248      .   S
    C178   O660      0.67248      .   S
    C363   O661      0.67198      .   S
    C179   O661      0.67198      .   S
    C361   O662      0.67249      .   S
    C177   O662      0.67249      .   S
    C360   O663      0.67221      .   S
    C176   O663      0.67221      .   S
    C211   O664      0.54436      .   S
    C67    O664      0.54436      .   S
    C211   O665      0.69936      .   S
    C207   O665      0.69936      .   S
    C210   O666      0.54437      .   S
    C66    O666      0.54437      .   S
    C210   O667      0.69907      .   S
    C206   O667      0.69907      .   S
    C209   O668      0.54436      .   S
    C65    O668      0.54436      .   S
    C209   O669      0.69938      .   S
    C205   O669      0.69938      .   S
    C208   O670      0.54435      .   S
    C64    O670      0.54435      .   S
    C208   O671      0.69938      .   S
    C204   O671      0.69938      .   S
    C434   O672      0.63149      .   S
    C295   O672      0.63149      .   S
    C435   O673      0.63493      .   S
    C294   O673      0.63493      .   S
    C203   O674      0.69874      .   S
    C207   O674      0.69874      .   S
    C203   O675      0.54375      .   S
    C63    O675      0.54375      .   S
    C432   O676      0.63153      .   S
    C293   O676      0.63153      .   S
    C202   O677      0.69876      .   S
    C206   O677      0.69876      .   S
    C202   O678      0.54374      .   S
    C62    O678      0.54374      .   S
    C433   O679      0.63455      .   S
    C292   O679      0.63455      .   S
    C201   O680      0.69875      .   S
    C205   O680      0.69875      .   S
    C201   O681      0.54381      .   S
    C61    O681      0.54381      .   S
    C200   O682      0.69877      .   S
    C204   O682      0.69877      .   S
    C200   O683      0.54375      .   S
    C60    O683      0.54375      .   S
    C436   O684      0.63799      .   S
    C292   O684      0.63799      .   S
    C437   O685      0.63814      .   S
    C293   O685      0.63814      .   S
    C439   O686      0.63806      .   S
    C295   O686      0.63806      .   S
    C438   O687      0.63801      .   S
    C294   O687      0.63801      .   S
    C186   O688      0.54500      .   S
    C54    O688      0.54500      .   S
    C186   O689      0.69965      .   S
    C182   O689      0.69965      .   S
    C185   O690      0.54496      .   S
    C53    O690      0.54496      .   S
    C185   O691      0.69961      .   S
    C181   O691      0.69961      .   S
    C187   O692      0.54497      .   S
    C55    O692      0.54497      .   S
    C187   O693      0.69964      .   S
    C183   O693      0.69964      .   S
    C184   O694      0.54499      .   S
    C52    O694      0.54499      .   S
    C184   O695      0.69963      .   S
    C180   O695      0.69963      .   S
    C207   O696      0.75709      .   S
    C223   O696      0.75709      .   S
    C206   O697      0.75748      .   S
    C222   O697      0.75748      .   S
    C205   O698      0.75751      .   S
    C221   O698      0.75751      .   S
    C204   O699      0.75748      .   S
    C220   O699      0.75748      .   S
    C295   O700      0.75683      .   S
    C279   O700      0.75683      .   S
    C292   O701      0.75690      .   S
    C276   O701      0.75690      .   S
    C293   O702      0.75738      .   S
    C277   O702      0.75738      .   S
    C294   O703      0.75681      .   S
    C278   O703      0.75681      .   S
    C440   O704      0.64095      .   S
    C316   O704      0.64095      .   S
    C442   O705      0.63606      .   S
    C318   O705      0.63606      .   S
    C443   O706      0.63606      .   S
    C319   O706      0.63606      .   S
    C441   O707      0.63609      .   S
    C317   O707      0.63609      .   S
    C178   O708      0.69876      .   S
    C182   O708      0.69876      .   S
    C178   O709      0.54423      .   S
    C50    O709      0.54423      .   S
    C179   O710      0.69913      .   S
    C183   O710      0.69913      .   S
    C179   O711      0.54437      .   S
    C51    O711      0.54437      .   S
    C176   O712      0.69888      .   S
    C180   O712      0.69888      .   S
    C176   O713      0.54428      .   S
    C48    O713      0.54428      .   S
    C177   O714      0.69874      .   S
    C181   O714      0.69874      .   S
    C177   O715      0.54415      .   S
    C49    O715      0.54415      .   S
    C447   O716      0.63644      .   S
    C319   O716      0.63644      .   S
    C445   O717      0.63645      .   S
    C317   O717      0.63645      .   S
    C446   O718      0.63644      .   S
    C318   O718      0.63644      .   S
    C444   O719      0.63647      .   S
    C316   O719      0.63647      .   S
    C182   O720      0.75692      .   S
    C198   O720      0.75692      .   S
    C181   O721      0.75681      .   S
    C197   O721      0.75681      .   S
    C183   O722      0.75691      .   S
    C199   O722      0.75691      .   S
    C180   O723      0.75644      .   S
    C196   O723      0.75644      .   S
    C319   O724      0.75748      .   S
    C303   O724      0.75748      .   S
    C318   O725      0.75750      .   S
    C302   O725      0.75750      .   S
    C317   O726      0.75748      .   S
    C301   O726      0.75748      .   S
    C316   O727      0.75752      .   S
    C300   O727      0.75752      .   S
    C106   O728      0.54423      .   S
    C274   O728      0.54423      .   S
    C107   O729      0.54421      .   S
    C275   O729      0.54421      .   S
    C104   O730      0.54422      .   S
    C272   O730      0.54422      .   S
    C105   O731      0.54423      .   S
    C273   O731      0.54423      .   S
    C223   O732      0.63649      .   S
    C415   O732      0.63649      .   S
    C223   O733      0.63644      .   S
    C411   O733      0.63644      .   S
    C222   O734      0.63643      .   S
    C414   O734      0.63643      .   S
    C222   O735      0.63634      .   S
    C410   O735      0.63634      .   S
    C221   O736      0.63643      .   S
    C413   O736      0.63643      .   S
    C221   O737      0.63601      .   S
    C409   O737      0.63601      .   S
    C220   O738      0.63643      .   S
    C412   O738      0.63643      .   S
    C220   O739      0.63605      .   S
    C408   O739      0.63605      .   S
    C279   O740      0.69873      .   S
    C275   O740      0.69873      .   S
    C279   O741      0.69963      .   S
    C283   O741      0.69963      .   S
    C276   O742      0.69875      .   S
    C272   O742      0.69875      .   S
    C276   O743      0.69965      .   S
    C280   O743      0.69965      .   S
    C278   O744      0.69875      .   S
    C274   O744      0.69875      .   S
    C278   O745      0.69962      .   S
    C282   O745      0.69962      .   S
    C277   O746      0.69874      .   S
    C273   O746      0.69874      .   S
    C277   O747      0.69945      .   S
    C281   O747      0.69945      .   S
    C415   O748      1.20982      .   S
    C7     O748      1.20982      .   S
    C413   O749      1.21006      .   S
    C5     O749      1.21006      .   S
    C414   O750      1.20956      .   S
    C6     O750      1.20956      .   S
    C412   O751      1.20967      .   S
    C4     O751      1.20967      .   S
    C275   O752      0.67249      .   S
    C379   O752      0.67249      .   S
    C274   O753      0.67250      .   S
    C378   O753      0.67250      .   S
    C272   O754      0.67252      .   S
    C376   O754      0.67252      .   S
    C273   O755      0.67249      .   S
    C377   O755      0.67249      .   S
    C118   O756      0.54381      .   S
    C298   O756      0.54381      .   S
    C119   O757      0.54382      .   S
    C299   O757      0.54382      .   S
    C117   O758      0.54379      .   S
    C297   O758      0.54379      .   S
    C116   O759      0.54382      .   S
    C296   O759      0.54382      .   S
    C198   O760      0.63804      .   S
    C406   O760      0.63804      .   S
    C198   O761      0.63155      .   S
    C403   O761      0.63155      .   S
    C197   O762      0.63800      .   S
    C405   O762      0.63800      .   S
    C197   O763      0.63162      .   S
    C400   O763      0.63162      .   S
    C196   O764      0.63838      .   S
    C404   O764      0.63838      .   S
    C196   O765      0.63150      .   S
    C401   O765      0.63150      .   S
    C199   O766      0.63794      .   S
    C407   O766      0.63794      .   S
    C199   O767      0.63163      .   S
    C402   O767      0.63163      .   S
    C111   O768      0.54495      .   S
    C283   O768      0.54495      .   S
    C108   O769      0.54496      .   S
    C280   O769      0.54496      .   S
    C110   O770      0.54501      .   S
    C282   O770      0.54501      .   S
    C109   O771      0.54459      .   S
    C281   O771      0.54459      .   S
    C303   O772      0.69876      .   S
    C299   O772      0.69876      .   S
    C303   O773      0.69938      .   S
    C307   O773      0.69938      .   S
    C302   O774      0.69875      .   S
    C298   O774      0.69875      .   S
    C302   O775      0.69939      .   S
    C306   O775      0.69939      .   S
    C301   O776      0.69874      .   S
    C297   O776      0.69874      .   S
    C301   O777      0.69932      .   S
    C305   O777      0.69932      .   S
    C300   O778      0.69874      .   S
    C296   O778      0.69874      .   S
    C300   O779      0.69934      .   S
    C304   O779      0.69934      .   S
    C283   O780      0.69771      .   S
    C287   O780      0.69771      .   S
    C280   O781      0.69771      .   S
    C284   O781      0.69771      .   S
    C281   O782      0.69831      .   S
    C285   O782      0.69831      .   S
    C282   O783      0.69763      .   S
    C286   O783      0.69763      .   S
    C405   O784      1.16577      .   S
    C0     O784      1.16577  1_545   S
    C406   O785      1.16535      .   S
    C3     O785      1.16535      .   S
    C404   O786      1.16523      .   S
    C1     O786      1.16523      .   S
    C407   O787      1.16551      .   S
    C2     O787      1.16551  1_545   S
    C96    O788      0.54506      .   S
    C264   O788      0.54506      .   S
    C97    O789      0.54504      .   S
    C265   O789      0.54504      .   S
    C99    O790      0.54489      .   S
    C267   O790      0.54489  1_455   S
    C98    O791      0.54492      .   S
    C266   O791      0.54492  1_455   S
    C299   O792      0.67313      .   S
    C383   O792      0.67313      .   S
    C298   O793      0.67279      .   S
    C382   O793      0.67279      .   S
    C402   O794      1.19183  1_565   S
    C6     O794      1.19183      .   S
    C297   O795      0.67315      .   S
    C381   O795      0.67315      .   S
    C403   O796      1.19283      .   S
    C7     O796      1.19283      .   S
    C296   O797      0.67312      .   S
    C380   O797      0.67312      .   S
    C400   O798      1.19204  1_565   S
    C4     O798      1.19204      .   S
    C401   O799      1.19242      .   S
    C5     O799      1.19242      .   S
    C340   O800      0.95761      .   S
    C262   O800      0.95761      .   S
    C341   O801      0.95765      .   S
    C263   O801      0.95765      .   S
    C343   O802      0.95811  1_655   S
    C261   O802      0.95811      .   S
    C342   O803      0.95758  1_655   S
    C260   O803      0.95758      .   S
    C123   O804      0.54435      .   S
    C307   O804      0.54435      .   S
    C121   O805      0.54436      .   S
    C305   O805      0.54436      .   S
    C122   O806      0.54435      .   S
    C306   O806      0.54435      .   S
    C120   O807      0.54437      .   S
    C304   O807      0.54437      .   S
    C307   O808      0.69639      .   S
    C311   O808      0.69639      .   S
    C306   O809      0.69600      .   S
    C310   O809      0.69600      .   S
    C305   O810      0.69642      .   S
    C309   O810      0.69642      .   S
    C304   O811      0.69638      .   S
    C308   O811      0.69638      .   S
    C379   O812      1.17654      .   S
    C5     O812      1.17654      .   S
    C379   O813      0.67385      .   S
    C291   O813      0.67385      .   S
    C378   O814      1.17705      .   S
    C4     O814      1.17705      .   S
    C378   O815      0.67395      .   S
    C290   O815      0.67395      .   S
    C376   O816      1.17763      .   S
    C6     O816      1.17763  1_655   S
    C376   O817      0.67395      .   S
    C288   O817      0.67395      .   S
    C377   O818      1.17738      .   S
    C7     O818      1.17738  1_655   S
    C377   O819      0.67395      .   S
    C289   O819      0.67395      .   S
    C85    O820      0.54501      .   S
    C241   O820      0.54501      .   S
    C86    O821      0.54499      .   S
    C242   O821      0.54499      .   S
    C84    O822      0.54502      .   S
    C240   O822      0.54502      .   S
    C87    O823      0.54501      .   S
    C243   O823      0.54501      .   S
    C46    O824      0.51785      .   S
    C450   O824      0.51785      .   S
    C47    O825      0.51778      .   S
    C451   O825      0.51778      .   S
    C44    O826      0.51792      .   S
    C448   O826      0.51792      .   S
    C45    O827      0.51783      .   S
    C449   O827      0.51783      .   S
    C336   O828      0.95503      .   S
    C236   O828      0.95503      .   S
    C337   O829      0.95499      .   S
    C237   O829      0.95499      .   S
    C338   O830      0.95501      .   S
    C238   O830      0.95501      .   S
    C339   O831      0.95501      .   S
    C239   O831      0.95501      .   S
    C264   O832      0.69749      .   S
    C262   O832      0.69749      .   S
    C264   O833      0.67369      .   S
    C374   O833      0.67369      .   S
    C265   O834      0.69750      .   S
    C263   O834      0.69750      .   S
    C265   O835      0.67369      .   S
    C375   O835      0.67369      .   S
    C267   O836      0.69733      .   S
    C261   O836      0.69733      .   S
    C267   O837      0.67418      .   S
    C373   O837      0.67418      .   S
    C266   O838      0.69734      .   S
    C260   O838      0.69734      .   S
    C266   O839      0.67425      .   S
    C372   O839      0.67425      .   S
    C287   O840      0.69717      .   S
    C291   O840      0.69717      .   S
    C287   O841      0.95499      .   S
    C347   O841      0.95499      .   S
    C284   O842      0.69737      .   S
    C288   O842      0.69737      .   S
    C284   O843      0.95504      .   S
    C344   O843      0.95504      .   S
    C286   O844      0.69737      .   S
    C290   O844      0.69737      .   S
    C286   O845      0.95494      .   S
    C346   O845      0.95494      .   S
    C285   O846      0.69736      .   S
    C289   O846      0.69736      .   S
    C285   O847      0.95504      .   S
    C345   O847      0.95504      .   S
    C6     O848      1.20997  1_655   S
    C372   O848      1.20997      .   S
    C6     O849      1.16538  1_655   S
    C388   O849      1.16538      .   S
    C7     O850      1.21035  1_655   S
    C373   O850      1.21035      .   S
    C7     O851      1.16545  1_655   S
    C389   O851      1.16545      .   S
    C4     O852      1.20999      .   S
    C374   O852      1.20999      .   S
    C4     O853      1.16572      .   S
    C390   O853      1.16572      .   S
    C5     O854      1.21020      .   S
    C375   O854      1.21020      .   S
    C5     O855      1.16621      .   S
    C391   O855      1.16621      .   S
    C382   O856      1.20960      .   S
    C3     O856      1.20960      .   S
    C382   O857      0.67410      .   S
    C315   O857      0.67410      .   S
    C383   O858      1.20993      .   S
    C2     O858      1.20993  1_545   S
    C383   O859      0.67370      .   S
    C314   O859      0.67370      .   S
    C381   O860      1.21043      .   S
    C0     O860      1.21043  1_545   S
    C381   O861      0.67366      .   S
    C312   O861      0.67366      .   S
    C380   O862      1.21008      .   S
    C1     O862      1.21008      .   S
    C380   O863      0.67371      .   S
    C313   O863      0.67371      .   S
    C262   O864      0.69641      .   S
    C258   O864      0.69641      .   S
    C263   O865      0.69642      .   S
    C259   O865      0.69642      .   S
    C261   O866      0.69643      .   S
    C257   O866      0.69643      .   S
    C260   O867      0.69639      .   S
    C256   O867      0.69639      .   S
    C291   O868      0.54525      .   S
    C115   O868      0.54525      .   S
    C290   O869      0.54500      .   S
    C114   O869      0.54500      .   S
    C288   O870      0.54499      .   S
    C112   O870      0.54499      .   S
    C289   O871      0.54498      .   S
    C113   O871      0.54498      .   S
    C451   O872      0.51789      .   S
    C19    O872      0.51789      .   S
    C450   O873      0.51781      .   S
    C18    O873      0.51781      .   S
    C448   O874      0.51790      .   S
    C16    O874      0.51790      .   S
    C449   O875      0.51790      .   S
    C17    O875      0.51790      .   S
    C241   O876      0.69739      .   S
    C237   O876      0.69739      .   S
    C241   O877      0.67395      .   S
    C369   O877      0.67395      .   S
    C240   O878      0.69735      .   S
    C236   O878      0.69735      .   S
    C240   O879      0.67397      .   S
    C368   O879      0.67397      .   S
    C242   O880      0.69738      .   S
    C238   O880      0.69738      .   S
    C242   O881      0.67394      .   S
    C370   O881      0.67394      .   S
    C243   O882      0.69734      .   S
    C239   O882      0.69734      .   S
    C243   O883      0.67396      .   S
    C371   O883      0.67396      .   S
    C311   O884      0.69750      .   S
    C314   O884      0.69750      .   S
    C311   O885      0.95756      .   S
    C350   O885      0.95756  1_545   S
    C310   O886      0.69745      .   S
    C315   O886      0.69745      .   S
    C310   O887      0.95798      .   S
    C351   O887      0.95798      .   S
    C309   O888      0.69751      .   S
    C312   O888      0.69751      .   S
    C309   O889      0.95759      .   S
    C348   O889      0.95759  1_545   S
    C308   O890      0.69751      .   S
    C313   O890      0.69751      .   S
    C308   O891      0.95764      .   S
    C349   O891      0.95764      .   S
    C374   O892      0.67314      .   S
    C250   O892      0.67314      .   S
    C375   O893      0.67310      .   S
    C251   O893      0.67310      .   S
    C373   O894      0.67318      .   S
    C249   O894      0.67318      .   S
    C372   O895      0.67314      .   S
    C248   O895      0.67314      .   S
    C3     O896      1.17729      .   S
    C370   O896      1.17729      .   S
    C3     O897      1.18383      .   S
    C387   O897      1.18383  1_455   S
    C3     O898      1.20965      .   S
    C399   O898      1.20965      .   S
    C0     O899      1.17693  1_545   S
    C369   O899      1.17693      .   S
    C0     O900      1.19301      .   S
    C384   O900      1.19301      .   S
    C0     O901      1.20963      .   S
    C396   O901      1.20963      .   S
    C2     O902      1.17727  1_545   S
    C371   O902      1.17727      .   S
    C2     O903      1.18308      .   S
    C386   O903      1.18308  1_455   S
    C2     O904      1.20957      .   S
    C398   O904      1.20957      .   S
    C1     O905      1.17735      .   S
    C368   O905      1.17735      .   S
    C1     O906      1.19257      .   S
    C385   O906      1.19257      .   S
    C1     O907      1.20893      .   S
    C397   O907      1.20893      .   S
    C236   O908      0.69770      .   S
    C232   O908      0.69770      .   S
    C237   O909      0.69766      .   S
    C233   O909      0.69766      .   S
    C238   O910      0.69768      .   S
    C234   O910      0.69768      .   S
    C239   O911      0.69776      .   S
    C235   O911      0.69776      .   S
    C314   O912      0.54503  1_565   S
    C126   O912      0.54503      .   S
    C315   O913      0.54508      .   S
    C127   O913      0.54508      .   S
    C312   O914      0.54503  1_565   S
    C124   O914      0.54503      .   S
    C313   O915      0.54504      .   S
    C125   O915      0.54504      .   S
    C369   O916      0.67253      .   S
    C225   O916      0.67253      .   S
    C370   O917      0.67252      .   S
    C226   O917      0.67252      .   S
    C368   O918      0.67249      .   S
    C224   O918      0.67249      .   S
    C371   O919      0.67245      .   S
    C227   O919      0.67245      .   S
    C258   O920      0.54436      .   S
    C94    O920      0.54436      .   S
    C258   O921      0.69936      .   S
    C254   O921      0.69936      .   S
    C259   O922      0.54438      .   S
    C95    O922      0.54438      .   S
    C259   O923      0.69934      .   S
    C255   O923      0.69934      .   S
    C257   O924      0.54436      .   S
    C93    O924      0.54436      .   S
    C257   O925      0.69936      .   S
    C253   O925      0.69936      .   S
    C256   O926      0.54436      .   S
    C92    O926      0.54436      .   S
    C256   O927      0.69936      .   S
    C252   O927      0.69936      .   S
    C386   O928      0.63542      .   S
    C148   O928      0.63542      .   S
    C384   O929      0.63155      .   S
    C150   O929      0.63155      .   S
    C385   O930      0.63151      .   S
    C151   O930      0.63151      .   S
    C387   O931      0.63515      .   S
    C149   O931      0.63515      .   S
    C250   O932      0.69876      .   S
    C254   O932      0.69876      .   S
    C250   O933      0.54375      .   S
    C90    O933      0.54375      .   S
    C251   O934      0.69873      .   S
    C255   O934      0.69873      .   S
    C251   O935      0.54380      .   S
    C91    O935      0.54380      .   S
    C249   O936      0.69874      .   S
    C253   O936      0.69874      .   S
    C249   O937      0.54376      .   S
    C89    O937      0.54376      .   S
    C248   O938      0.69879      .   S
    C252   O938      0.69879      .   S
    C248   O939      0.54378      .   S
    C88    O939      0.54378      .   S
    C388   O940      0.63798      .   S
    C148   O940      0.63798      .   S
    C390   O941      0.63805      .   S
    C150   O941      0.63805      .   S
    C389   O942      0.63781      .   S
    C149   O942      0.63781      .   S
    C391   O943      0.63805      .   S
    C151   O943      0.63805      .   S
    C232   O944      0.54495      .   S
    C80    O944      0.54495      .   S
    C232   O945      0.69959      .   S
    C228   O945      0.69959      .   S
    C233   O946      0.54497      .   S
    C81    O946      0.54497      .   S
    C233   O947      0.69962      .   S
    C229   O947      0.69962      .   S
    C234   O948      0.54478      .   S
    C82    O948      0.54478      .   S
    C234   O949      0.69962      .   S
    C230   O949      0.69962      .   S
    C235   O950      0.54495      .   S
    C83    O950      0.54495      .   S
    C235   O951      0.69962      .   S
    C231   O951      0.69962      .   S
    C395   O952      0.63601      .   S
    C175   O952      0.63601      .   S
    C394   O953      0.63607      .   S
    C174   O953      0.63607      .   S
    C392   O954      0.63301      .   S
    C172   O954      0.63301      .   S
    C393   O955      0.63603      .   S
    C173   O955      0.63603      .   S
    C225   O956      0.69872      .   S
    C229   O956      0.69872      .   S
    C225   O957      0.54422      .   S
    C77    O957      0.54422      .   S
    C226   O958      0.69871      .   S
    C230   O958      0.69871      .   S
    C226   O959      0.54422      .   S
    C78    O959      0.54422      .   S
    C224   O960      0.69877      .   S
    C228   O960      0.69877      .   S
    C224   O961      0.54424      .   S
    C76    O961      0.54424      .   S
    C227   O962      0.69877      .   S
    C231   O962      0.69877      .   S
    C227   O963      0.54422      .   S
    C79    O963      0.54422      .   S
    C399   O964      0.63646      .   S
    C175   O964      0.63646      .   S
    C398   O965      0.63646      .   S
    C174   O965      0.63646      .   S
    C396   O966      0.63682      .   S
    C172   O966      0.63682      .   S
    C397   O967      0.63646      .   S
    C173   O967      0.63646      .   S
    C448   O968      1.16435      .   S
    C0     O968      1.16435      .   S
    C448   O969      1.16506      .   S
    C4     O969      1.16506      .   S
    C449   O970      1.16549      .   S
    C1     O970      1.16549      .   S
    C449   O971      1.16476      .   S
    C5     O971      1.16476      .   S
    C450   O972      1.16479      .   S
    C2     O972      1.16479      .   S
    C450   O973      1.16524      .   S
    C6     O973      1.16524      .   S
    C451   O974      1.16517      .   S
    C3     O974      1.16517      .   S
    C451   O975      1.16496      .   S
    C7     O975      1.16496      .   S
    C452   O976      1.16527      .   S
    C8     O976      1.16527      .   S
    C452   O977      1.16498      .   S
    C12    O977      1.16498      .   S
    C453   O978      1.16479      .   S
    C9     O978      1.16479      .   S
    C453   O979      1.16525      .   S
    C13    O979      1.16525      .   S
    C454   O980      1.16518      .   S
    C10    O980      1.16518      .   S
    C454   O981      1.16505      .   S
    C14    O981      1.16505      .   S
    C455   O982      1.16434      .   S
    C11    O982      1.16434      .   S
    C455   O983      1.16503      .   S
    C15    O983      1.16503      .   S
