# CIF file generated by openbabel 2.4.90, see http://openbabel.sf.net
data_I
_chemical_name_common 'VESTA_phase_1'
_cell_length_a 13.592
_cell_length_b 22.212
_cell_length_c 22.222
_cell_angle_alpha 72.165
_cell_angle_beta 90.017
_cell_angle_gamma 89.997
_space_group_name_H-M_alt 'P 1'
_space_group_name_Hall 'P 1'
loop_
    _symmetry_equiv_pos_as_xyz
    x,y,z
loop_
    _atom_site_label
    _atom_site_type_symbol
    _atom_site_fract_x
    _atom_site_fract_y
    _atom_site_fract_z
    _atom_site_occupancy
    Zn0     Zn   0.44591   0.99997   0.25000   1.000
    Zn1     Zn   0.44591   0.00003   0.75000   1.000
    Zn2     Zn   0.44591   0.49997   0.24999   1.000
    Zn3     Zn   0.44591   0.50001   0.74999   1.000
    Zn4     Zn   0.94593   0.99997   0.25000   1.000
    Zn5     Zn   0.94593   0.00003   0.75000   1.000
    Zn6     Zn   0.94592   0.49997   0.24999   1.000
    Zn7     Zn   0.94593   0.50001   0.74999   1.000
    Zn8     Zn   0.05411   0.24999   0.99996   1.000
    Zn9     Zn   0.05412   0.24998   0.49997   1.000
    Zn10    Zn   0.05413   0.74996   0.50001   1.000
    Zn11    Zn   0.05413   0.74996   0.00000   1.000
    Zn12    Zn   0.55413   0.24999   0.99996   1.000
    Zn13    Zn   0.55414   0.24998   0.49997   1.000
    Zn14    Zn   0.55415   0.74996   0.50001   1.000
    Zn15    Zn   0.55414   0.74997   0.90000   1.000
    H16     H    0.31677   0.48618   0.06784   1.000
    H17     H    0.31659   0.48617   0.56788   1.000
    H18     H    0.31692   0.98614   0.06782   1.000
    H19     H    0.31661   0.98613   0.56789   1.000
    H20     H    0.81679   0.48618   0.06784   1.000
    H21     H    0.81661   0.48617   0.56788   1.000
    H22     H    0.81694   0.98614   0.06782   1.000
    H23     H    0.81662   0.98613   0.56789   1.000
    H24     H    0.20095   0.48656   0.10718   1.000
    H25     H    0.20083   0.48658   0.60720   1.000
    H26     H    0.20110   0.98679   0.10708   1.000
    H27     H    0.20087   0.98674   0.60727   1.000
    H28     H    0.70097   0.48656   0.10718   1.000
    H29     H    0.70085   0.48658   0.60728   1.000
    H30     H    0.70111   0.98679   0.10708   1.000
    H31     H    0.70089   0.98674   0.60727   1.000
    H32     H    0.20124   0.12645   0.21856   1.000
    H33     H    0.20108   0.12659   0.71851   1.000
    H34     H    0.20127   0.62639   0.21861   1.000
    H35     H    0.20114   0.62652   0.71854   1.000
    H36     H    0.70125   0.12645   0.21856   1.000
    H37     H    0.70110   0.12659   0.71851   1.000
    H38     H    0.70129   0.62639   0.21861   1.000
    H39     H    0.70116   0.62652   0.71854   1.000
    H40     H    0.13063   0.17576   0.15454   1.000
    H41     H    0.13054   0.17586   0.65443   1.000
    H42     H    0.13069   0.67573   0.15459   1.000
    H43     H    0.13060   0.67581   0.65447   1.000
    H44     H    0.63065   0.17576   0.15454   1.000
    H45     H    0.63056   0.17586   0.65443   1.000
    H46     H    0.63071   0.67573   0.15459   1.000
    H47     H    0.63062   0.67581   0.65447   1.000
    H48     H    0.30916   0.36794   0.12523   1.000
    H49     H    0.30887   0.36791   0.62545   1.000
    H50     H    0.30871   0.86793   0.12537   1.000
    H51     H    0.30841   0.86788   0.62568   1.000
    H52     H    0.80918   0.36794   0.12523   1.000
    H53     H    0.80889   0.36791   0.62545   1.000
    H54     H    0.80873   0.86793   0.12537   1.000
    H55     H    0.80842   0.86788   0.62569   1.000
    H56     H    0.27848   0.08218   0.13994   1.000
    H57     H    0.27839   0.08221   0.63998   1.000
    H58     H    0.27850   0.58214   0.13996   1.000
    H59     H    0.27842   0.58217   0.63998   1.000
    H60     H    0.77850   0.08218   0.13994   1.000
    H61     H    0.77841   0.08221   0.63998   1.000
    H62     H    0.77852   0.58214   0.13996   1.000
    H63     H    0.77844   0.58217   0.63998   1.000
    H64     H    0.31668   0.01380   0.43208   1.000
    H65     H    0.31695   0.01381   0.93214   1.000
    H66     H    0.31660   0.51378   0.43205   1.000
    H67     H    0.31672   0.51377   0.93207   1.000
    H68     H    0.81670   0.01380   0.43208   1.000
    H69     H    0.81697   0.01381   0.93214   1.000
    H70     H    0.81662   0.51378   0.43205   1.000
    H71     H    0.81674   0.51377   0.93207   1.000
    H72     H    0.20095   0.01315   0.39200   1.000
    H73     H    0.20113   0.01318   0.89284   1.000
    H74     H    0.20087   0.51329   0.39260   1.000
    H75     H    0.20093   0.51343   0.89260   1.000
    H76     H    0.70097   0.01315   0.39270   1.000
    H77     H    0.70115   0.01318   0.89284   1.000
    H78     H    0.70089   0.51329   0.39262   1.000
    H79     H    0.70095   0.51343   0.89267   1.000
    H80     H    0.20098   0.37339   0.28142   1.000
    H81     H    0.20111   0.37353   0.78137   1.000
    H82     H    0.20095   0.87333   0.28148   1.000
    H83     H    0.20110   0.87347   0.78143   1.000
    H84     H    0.70100   0.37339   0.28142   1.000
    H85     H    0.70112   0.37353   0.78137   1.000
    H86     H    0.70097   0.87333   0.28148   1.000
    H87     H    0.70112   0.87347   0.78143   1.000
    H88     H    0.13058   0.32409   0.34553   1.000
    H89     H    0.13067   0.32417   0.84543   1.000
    H90     H    0.13052   0.82406   0.34560   1.000
    H91     H    0.13061   0.82417   0.84549   1.000
    H92     H    0.63060   0.32409   0.34553   1.000
    H93     H    0.63069   0.32417   0.84543   1.000
    H94     H    0.63054   0.82406   0.34500   1.000
    H95     H    0.63063   0.82417   0.84549   1.000
    H96     H    0.30823   0.13206   0.37440   1.000
    H97     H    0.30866   0.13203   0.87470   1.000
    H98     H    0.30852   0.63206   0.37448   1.000
    H99     H    0.30904   0.63204   0.87475   1.000
    H100    H    0.80825   0.13206   0.37440   1.000
    H101    H    0.80868   0.13203   0.87470   1.000
    H102    H    0.80854   0.63206   0.37448   1.000
    H103    H    0.80906   0.63204   0.87475   1.000
    H104    H    0.27835   0.41777   0.35996   1.000
    H105    H    0.27842   0.41781   0.85998   1.000
    H106    H    0.27835   0.91774   0.35999   1.000
    H107    H    0.27844   0.91778   0.86000   1.000
    H108    H    0.77837   0.41777   0.35996   1.000
    H109    H    0.77844   0.41781   0.85998   1.000
    H110    H    0.77837   0.91774   0.35999   1.000
    H111    H    0.77846   0.91778   0.86000   1.000
    H112    H    0.18327   0.06774   0.48610   1.000
    H113    H    0.18310   0.06771   0.98615   1.000
    H114    H    0.18341   0.56775   0.48617   1.000
    H115    H    0.18340   0.56775   0.98615   1.000
    H116    H    0.68328   0.06774   0.48610   1.000
    H117    H    0.68312   0.06771   0.98615   1.000
    H118    H    0.68343   0.56775   0.48617   1.000
    H119    H    0.68342   0.56775   0.98615   1.000
    H120    H    0.29907   0.10714   0.48660   1.000
    H121    H    0.29892   0.10702   0.98684   1.000
    H122    H    0.29917   0.60720   0.48663   1.000
    H123    H    0.29913   0.60717   0.98683   1.000
    H124    H    0.79909   0.10714   0.48660   1.000
    H125    H    0.79894   0.10702   0.98684   1.000
    H126    H    0.79919   0.60720   0.48663   1.000
    H127    H    0.79915   0.60717   0.98683   1.000
    H128    H    0.29885   0.21860   0.12639   1.000
    H129    H    0.29882   0.21864   0.62635   1.000
    H130    H    0.29901   0.71853   0.12654   1.000
    H131    H    0.29894   0.71857   0.62646   1.000
    H132    H    0.79887   0.21860   0.12639   1.000
    H133    H    0.79884   0.21864   0.62635   1.000
    H134    H    0.79903   0.71852   0.12654   1.000
    H135    H    0.79896   0.71857   0.62646   1.000
    H136    H    0.36946   0.15457   0.17571   1.000
    H137    H    0.36940   0.15462   0.67570   1.000
    H138    H    0.36955   0.65444   0.17582   1.000
    H139    H    0.36948   0.65451   0.67577   1.000
    H140    H    0.86947   0.15457   0.17571   1.000
    H141    H    0.86942   0.15462   0.67570   1.000
    H142    H    0.86957   0.65444   0.17582   1.000
    H143    H    0.86950   0.65451   0.67577   1.000
    H144    H    0.19084   0.12524   0.36801   1.000
    H145    H    0.19130   0.12536   0.86801   1.000
    H146    H    0.19111   0.62543   0.36799   1.000
    H147    H    0.19164   0.62565   0.86798   1.000
    H148    H    0.69086   0.12524   0.36801   1.000
    H149    H    0.69132   0.12536   0.86801   1.000
    H150    H    0.69113   0.62543   0.36799   1.000
    H151    H    0.69166   0.62565   0.86798   1.000
    H152    H    0.22154   0.13990   0.08222   1.000
    H153    H    0.22153   0.13991   0.58220   1.000
    H154    H    0.22164   0.63992   0.08226   1.000
    H155    H    0.22160   0.63991   0.58223   1.000
    H156    H    0.72155   0.13990   0.08222   1.000
    H157    H    0.72155   0.13991   0.58220   1.000
    H158    H    0.72166   0.63992   0.08226   1.000
    H159    H    0.72162   0.63991   0.58223   1.000
    H160    H    0.18345   0.43214   0.01379   1.000
    H161    H    0.18354   0.43211   0.51379   1.000
    H162    H    0.18321   0.93217   0.01380   1.000
    H163    H    0.18350   0.93210   0.51378   1.000
    H164    H    0.68347   0.43214   0.01379   1.000
    H165    H    0.68356   0.43211   0.51379   1.000
    H166    H    0.68323   0.93217   0.01380   1.000
    H167    H    0.68352   0.93210   0.51378   1.000
    H168    H    0.29916   0.39270   0.01317   1.000
    H169    H    0.29925   0.39262   0.51335   1.000
    H170    H    0.29900   0.89281   0.01323   1.000
    H171    H    0.29925   0.89262   0.51350   1.000
    H172    H    0.79917   0.39270   0.01317   1.000
    H173    H    0.79927   0.39262   0.51330   1.000
    H174    H    0.79902   0.89281   0.01323   1.000
    H175    H    0.79928   0.89261   0.51351   1.000
    H176    H    0.29906   0.28139   0.37343   1.000
    H177    H    0.29910   0.28145   0.87337   1.000
    H178    H    0.29896   0.78134   0.37355   1.000
    H179    H    0.29896   0.78138   0.87353   1.000
    H180    H    0.79908   0.28139   0.37343   1.000
    H181    H    0.79912   0.28145   0.87337   1.000
    H182    H    0.79898   0.78134   0.37355   1.000
    H183    H    0.79898   0.78138   0.87353   1.000
    H184    H    0.36947   0.34550   0.32413   1.000
    H185    H    0.36954   0.34557   0.82411   1.000
    H186    H    0.36940   0.84540   0.32420   1.000
    H187    H    0.36946   0.84544   0.82420   1.000
    H188    H    0.86949   0.34550   0.32413   1.000
    H189    H    0.86956   0.34557   0.82411   1.000
    H190    H    0.86942   0.84541   0.32420   1.000
    H191    H    0.86948   0.84544   0.82420   1.000
    H192    H    0.19176   0.37432   0.13198   1.000
    H193    H    0.19145   0.37439   0.63200   1.000
    H194    H    0.19134   0.87460   0.13197   1.000
    H195    H    0.19099   0.87462   0.63199   1.000
    H196    H    0.69178   0.37432   0.13198   1.000
    H197    H    0.69147   0.37439   0.63200   1.000
    H198    H    0.69137   0.87460   0.13197   1.000
    H199    H    0.69100   0.87462   0.63199   1.000
    H200    H    0.22172   0.35999   0.41773   1.000
    H201    H    0.22174   0.36002   0.91771   1.000
    H202    H    0.22167   0.85999   0.41778   1.000
    H203    H    0.22166   0.86003   0.91776   1.000
    H204    H    0.72174   0.35999   0.41773   1.000
    H205    H    0.72176   0.36002   0.91771   1.000
    H206    H    0.72169   0.85999   0.41778   1.000
    H207    H    0.72168   0.86003   0.91776   1.000
    C208    C    0.27032   0.46085   0.10796   1.000
    C209    C    0.27018   0.46086   0.60802   1.000
    C210    C    0.27035   0.96094   0.10792   1.000
    C211    C    0.27013   0.96091   0.60803   1.000
    C212    C    0.77034   0.46085   0.10796   1.000
    C213    C    0.77020   0.46086   0.60802   1.000
    C214    C    0.77037   0.96094   0.10792   1.000
    C215    C    0.77014   0.96091   0.60803   1.000
    C216    C    0.32467   0.45441   0.16985   1.000
    C217    C    0.32463   0.45441   0.66988   1.000
    C218    C    0.32467   0.95445   0.16983   1.000
    C219    C    0.32460   0.95443   0.66989   1.000
    C220    C    0.82469   0.45441   0.16985   1.000
    C221    C    0.82465   0.45441   0.66988   1.000
    C222    C    0.82469   0.95445   0.16983   1.000
    C223    C    0.82462   0.95443   0.66989   1.000
    C224    C    0.16840   0.13005   0.17249   1.000
    C225    C    0.16830   0.13014   0.67244   1.000
    C226    C    0.16845   0.63002   0.17253   1.000
    C227    C    0.16835   0.63010   0.67247   1.000
    C228    C    0.66842   0.13005   0.17249   1.000
    C229    C    0.66831   0.13014   0.67244   1.000
    C230    C    0.66847   0.63002   0.17253   1.000
    C231    C    0.66837   0.63010   0.67247   1.000
    C232    C    0.09589   0.07579   0.17996   1.000
    C233    C    0.09579   0.07589   0.67993   1.000
    C234    C    0.09592   0.57577   0.17997   1.000
    C235    C    0.09583   0.57585   0.67994   1.000
    C236    C    0.59591   0.07579   0.17996   1.000
    C237    C    0.59580   0.07589   0.67993   1.000
    C238    C    0.59594   0.57577   0.17997   1.000
    C239    C    0.59585   0.57585   0.67994   1.000
    C240    C    0.27014   0.03903   0.39195   1.000
    C241    C    0.27036   0.03904   0.89204   1.000
    C242    C    0.27013   0.53909   0.39191   1.000
    C243    C    0.27027   0.53915   0.89195   1.000
    C244    C    0.77016   0.03903   0.39195   1.000
    C245    C    0.77038   0.03904   0.89204   1.000
    C246    C    0.77015   0.53909   0.39191   1.000
    C247    C    0.77029   0.53915   0.89195   1.000
    C248    C    0.32457   0.04557   0.33009   1.000
    C249    C    0.32466   0.04556   0.83014   1.000
    C250    C    0.32458   0.54561   0.33006   1.000
    C251    C    0.32463   0.54563   0.83007   1.000
    C252    C    0.82459   0.04557   0.33009   1.000
    C253    C    0.82467   0.04556   0.83014   1.000
    C254    C    0.82459   0.54561   0.33006   1.000
    C255    C    0.82465   0.54563   0.83007   1.000
    C256    C    0.16828   0.36981   0.32751   1.000
    C257    C    0.16837   0.36990   0.82746   1.000
    C258    C    0.16824   0.86978   0.32756   1.000
    C259    C    0.16834   0.86988   0.82751   1.000
    C260    C    0.66829   0.36981   0.32751   1.000
    C261    C    0.66838   0.36990   0.82740   1.000
    C262    C    0.66826   0.86978   0.32756   1.000
    C263    C    0.66836   0.86988   0.82751   1.000
    C264    C    0.09573   0.42404   0.32008   1.000
    C265    C    0.09581   0.42412   0.82000   1.000
    C266    C    0.09573   0.92403   0.32009   1.000
    C267    C    0.09582   0.92413   0.82006   1.000
    C268    C    0.59575   0.42404   0.32008   1.000
    C269    C    0.59583   0.42412   0.82000   1.000
    C270    C    0.59574   0.92403   0.32009   1.000
    C271    C    0.59584   0.92413   0.82006   1.000
    C272    C    0.22969   0.10790   0.46091   1.000
    C273    C    0.22966   0.10786   0.96100   1.000
    C274    C    0.22981   0.60794   0.46092   1.000
    C275    C    0.22988   0.60794   0.96100   1.000
    C276    C    0.72971   0.10790   0.46091   1.000
    C277    C    0.72968   0.10786   0.96100   1.000
    C278    C    0.72983   0.60794   0.46092   1.000
    C279    C    0.72990   0.60794   0.96100   1.000
    C280    C    0.17534   0.16981   0.45450   1.000
    C281    C    0.17535   0.16978   0.95454   1.000
    C282    C    0.17538   0.66982   0.45450   1.000
    C283    C    0.17542   0.66981   0.95455   1.000
    C284    C    0.67536   0.16981   0.45450   1.000
    C285    C    0.67537   0.16979   0.95454   1.000
    C286    C    0.67540   0.66982   0.45450   1.000
    C287    C    0.67544   0.66981   0.95455   1.000
    C288    C    0.33166   0.17250   0.13002   1.000
    C289    C    0.33163   0.17253   0.63001   1.000
    C290    C    0.33178   0.67243   0.13013   1.000
    C291    C    0.33171   0.67247   0.63007   1.000
    C292    C    0.83168   0.17250   0.13002   1.000
    C293    C    0.83164   0.17253   0.63001   1.000
    C294    C    0.83180   0.67243   0.13013   1.000
    C295    C    0.83173   0.67247   0.63007   1.000
    C296    C    0.40412   0.17998   0.07577   1.000
    C297    C    0.40410   0.17998   0.57577   1.000
    C298    C    0.40424   0.67993   0.07587   1.000
    C299    C    0.40418   0.67994   0.57583   1.000
    C300    C    0.90414   0.17998   0.07577   1.000
    C301    C    0.90412   0.17998   0.57577   1.000
    C302    C    0.90425   0.67993   0.07587   1.000
    C303    C    0.90420   0.67994   0.57583   1.000
    C304    C    0.22993   0.39197   0.03900   1.000
    C305    C    0.22995   0.39193   0.53908   1.000
    C306    C    0.22974   0.89203   0.03903   1.000
    C307    C    0.22987   0.89192   0.53915   1.000
    C308    C    0.72995   0.39197   0.03900   1.000
    C309    C    0.72997   0.39192   0.53908   1.000
    C310    C    0.72976   0.89203   0.03903   1.000
    C311    C    0.72989   0.89192   0.53915   1.000
    C312    C    0.17548   0.33009   0.04547   1.000
    C313    C    0.17549   0.33006   0.54550   1.000
    C314    C    0.17542   0.83011   0.04549   1.000
    C315    C    0.17547   0.83005   0.54557   1.000
    C316    C    0.67550   0.33009   0.04547   1.000
    C317    C    0.67551   0.33006   0.54550   1.000
    C318    C    0.67544   0.83011   0.04549   1.000
    C319    C    0.67549   0.83005   0.54557   1.000
    C320    C    0.33176   0.32751   0.36980   1.000
    C321    C    0.33181   0.32756   0.86980   1.000
    C322    C    0.33169   0.82745   0.36991   1.000
    C323    C    0.33172   0.82749   0.86990   1.000
    C324    C    0.83178   0.32751   0.36982   1.000
    C325    C    0.83183   0.32756   0.86980   1.000
    C326    C    0.83171   0.82746   0.36990   1.000
    C327    C    0.83174   0.82749   0.86991   1.000
    C328    C    0.40428   0.32005   0.42406   1.000
    C329    C    0.40431   0.32006   0.92406   1.000
    C330    C    0.40423   0.82002   0.42413   1.000
    C331    C    0.40422   0.82002   0.92417   1.000
    C332    C    0.90430   0.32005   0.42406   1.000
    C333    C    0.90432   0.32006   0.92406   1.000
    C334    C    0.90425   0.82002   0.42413   1.000
    C335    C    0.90424   0.82002   0.92410   1.000
    N336    N    0.25033   0.39617   0.10365   1.000
    N337    N    0.25013   0.39617   0.60374   1.000
    N338    N    0.25004   0.89627   0.10368   1.000
    N339    N    0.24983   0.89623   0.60381   1.000
    N340    N    0.75035   0.39617   0.10365   1.000
    N341    N    0.75015   0.39617   0.60374   1.000
    N342    N    0.75006   0.89627   0.10360   1.000
    N343    N    0.74985   0.89623   0.60381   1.000
    N344    N    0.24970   0.10367   0.39623   1.000
    N345    N    0.24999   0.10368   0.89634   1.000
    N346    N    0.24988   0.60374   0.39623   1.000
    N347    N    0.25022   0.60380   0.89632   1.000
    N348    N    0.74972   0.10367   0.39623   1.000
    N349    N    0.75001   0.10368   0.89634   1.000
    N350    N    0.74990   0.60374   0.39623   1.000
    N351    N    0.75025   0.60380   0.89632   1.000
    N352    N    0.25002   0.12816   0.12818   1.000
    N353    N    0.24996   0.12820   0.62818   1.000
    N354    N    0.25009   0.62814   0.12823   1.000
    N355    N    0.25002   0.62817   0.62820   1.000
    N356    N    0.75004   0.12816   0.12818   1.000
    N357    N    0.74998   0.12820   0.62818   1.000
    N358    N    0.75010   0.62814   0.12823   1.000
    N359    N    0.75004   0.62817   0.62820   1.000
    N360    N    0.25002   0.37176   0.37174   1.000
    N361    N    0.25007   0.37181   0.87170   1.000
    N362    N    0.24998   0.87174   0.37179   1.000
    N363    N    0.25003   0.87179   0.87179   1.000
    N364    N    0.75004   0.37176   0.37174   1.000
    N365    N    0.75009   0.37181   0.87170   1.000
    N366    N    0.75000   0.87174   0.37179   1.000
    N367    N    0.75005   0.87179   0.87179   1.000
    O368    O    0.34936   0.00759   0.17756   1.000
    O369    O    0.34925   0.00756   0.67764   1.000
    O370    O    0.34934   0.50754   0.17756   1.000
    O371    O    0.34928   0.50753   0.67761   1.000
    O372    O    0.84938   0.00759   0.17756   1.000
    O373    O    0.84927   0.00756   0.67764   1.000
    O374    O    0.84936   0.50754   0.17756   1.000
    O375    O    0.84930   0.50753   0.67761   1.000
    O376    O    0.34130   0.40027   0.20587   1.000
    O377    O    0.34133   0.40027   0.70587   1.000
    O378    O    0.34127   0.90031   0.20584   1.000
    O379    O    0.34133   0.90028   0.70585   1.000
    O380    O    0.84131   0.40027   0.20587   1.000
    O381    O    0.84135   0.40027   0.70587   1.000
    O382    O    0.84129   0.90031   0.20584   1.000
    O383    O    0.84135   0.90028   0.70585   1.000
    O384    O    0.02626   0.07680   0.21914   1.000
    O385    O    0.02609   0.07695   0.71900   1.000
    O386    O    0.02628   0.57678   0.21914   1.000
    O387    O    0.02615   0.57689   0.71907   1.000
    O388    O    0.52628   0.07680   0.21914   1.000
    O389    O    0.52610   0.07695   0.71900   1.000
    O390    O    0.52630   0.57678   0.21914   1.000
    O391    O    0.52616   0.57689   0.71907   1.000
    O392    O    0.10837   0.03649   0.15091   1.000
    O393    O    0.10834   0.03653   0.65095   1.000
    O394    O    0.10840   0.53648   0.15090   1.000
    O395    O    0.10837   0.53650   0.65094   1.000
    O396    O    0.60839   0.03649   0.15091   1.000
    O397    O    0.60836   0.03653   0.65095   1.000
    O398    O    0.60841   0.53648   0.15090   1.000
    O399    O    0.60839   0.53650   0.65094   1.000
    O400    O    0.34917   0.49250   0.32225   1.000
    O401    O    0.34924   0.49251   0.82230   1.000
    O402    O    0.34922   0.99246   0.32228   1.000
    O403    O    0.34933   0.99244   0.82236   1.000
    O404    O    0.84919   0.49250   0.32225   1.000
    O405    O    0.84926   0.49251   0.82230   1.000
    O406    O    0.84923   0.99246   0.32228   1.000
    O407    O    0.84935   0.99244   0.82236   1.000
    O408    O    0.34131   0.09974   0.29419   1.000
    O409    O    0.34127   0.09972   0.79418   1.000
    O410    O    0.34135   0.59977   0.29416   1.000
    O411    O    0.34133   0.59979   0.79410   1.000
    O412    O    0.84132   0.09974   0.29419   1.000
    O413    O    0.84129   0.09972   0.79418   1.000
    O414    O    0.84137   0.59977   0.29416   1.000
    O415    O    0.84135   0.59979   0.79413   1.000
    O416    O    0.02596   0.42297   0.28099   1.000
    O417    O    0.02607   0.42308   0.78094   1.000
    O418    O    0.02597   0.92296   0.28099   1.000
    O419    O    0.02612   0.92310   0.78090   1.000
    O420    O    0.52598   0.42297   0.28099   1.000
    O421    O    0.52609   0.42308   0.78094   1.000
    O422    O    0.52599   0.92296   0.28099   1.000
    O423    O    0.52614   0.92310   0.78091   1.000
    O424    O    0.10834   0.46341   0.34905   1.000
    O425    O    0.10837   0.46345   0.84900   1.000
    O426    O    0.10833   0.96341   0.34904   1.000
    O427    O    0.10838   0.96346   0.84908   1.000
    O428    O    0.60835   0.46341   0.34905   1.000
    O429    O    0.60839   0.46345   0.84900   1.000
    O430    O    0.60835   0.96341   0.34900   1.000
    O431    O    0.60840   0.96346   0.84908   1.000
    O432    O    0.15061   0.17749   0.00764   1.000
    O433    O    0.15064   0.17748   0.50760   1.000
    O434    O    0.15069   0.67752   0.00764   1.000
    O435    O    0.15068   0.67749   0.50762   1.000
    O436    O    0.65063   0.17749   0.00764   1.000
    O437    O    0.65066   0.17748   0.50760   1.000
    O438    O    0.65071   0.67752   0.00764   1.000
    O439    O    0.65070   0.67749   0.50762   1.000
    O440    O    0.15869   0.20587   0.40040   1.000
    O441    O    0.15874   0.20584   0.90044   1.000
    O442    O    0.15867   0.70586   0.40040   1.000
    O443    O    0.15870   0.70583   0.90040   1.000
    O444    O    0.65871   0.20587   0.40040   1.000
    O445    O    0.65876   0.20584   0.90044   1.000
    O446    O    0.65869   0.70586   0.40040   1.000
    O447    O    0.65872   0.70583   0.90044   1.000
    O448    O    0.47376   0.21918   0.07676   1.000
    O449    O    0.47374   0.21918   0.57675   1.000
    O450    O    0.47394   0.71907   0.07691   1.000
    O451    O    0.47386   0.71911   0.57684   1.000
    O452    O    0.97378   0.21918   0.07676   1.000
    O453    O    0.97376   0.21918   0.57675   1.000
    O454    O    0.97396   0.71907   0.07691   1.000
    O455    O    0.97388   0.71911   0.57684   1.000
    O456    O    0.39162   0.15089   0.03650   1.000
    O457    O    0.39161   0.15088   0.53651   1.000
    O458    O    0.39166   0.65092   0.03654   1.000
    O459    O    0.39164   0.65090   0.53653   1.000
    O460    O    0.89164   0.15089   0.03650   1.000
    O461    O    0.89163   0.15088   0.53651   1.000
    O462    O    0.89168   0.65092   0.03654   1.000
    O463    O    0.89166   0.65090   0.53653   1.000
    O464    O    0.15087   0.32230   0.49243   1.000
    O465    O    0.15084   0.32232   0.99239   1.000
    O466    O    0.15085   0.82231   0.49246   1.000
    O467    O    0.15076   0.82236   0.99240   1.000
    O468    O    0.65088   0.32230   0.49243   1.000
    O469    O    0.65085   0.32232   0.99239   1.000
    O470    O    0.65087   0.82231   0.49246   1.000
    O471    O    0.65077   0.82236   0.99240   1.000
    O472    O    0.15868   0.29415   0.09960   1.000
    O473    O    0.15865   0.29412   0.59964   1.000
    O474    O    0.15873   0.79413   0.09961   1.000
    O475    O    0.15867   0.79408   0.59968   1.000
    O476    O    0.65870   0.29415   0.09960   1.000
    O477    O    0.65867   0.29412   0.59964   1.000
    O478    O    0.65875   0.79413   0.09961   1.000
    O479    O    0.65869   0.79407   0.59968   1.000
    O480    O    0.47405   0.28095   0.42301   1.000
    O481    O    0.47406   0.28095   0.92300   1.000
    O482    O    0.47398   0.78090   0.42310   1.000
    O483    O    0.47392   0.78086   0.92315   1.000
    O484    O    0.97407   0.28095   0.42301   1.000
    O485    O    0.97408   0.28095   0.92300   1.000
    O486    O    0.97400   0.78090   0.42310   1.000
    O487    O    0.97394   0.78086   0.92315   1.000
    O488    O    0.39168   0.34905   0.46340   1.000
    O489    O    0.39170   0.34904   0.96341   1.000
    O490    O    0.39167   0.84906   0.46343   1.000
    O491    O    0.39167   0.84906   0.96347   1.000
    O492    O    0.89170   0.34905   0.46340   1.000
    O493    O    0.89172   0.34904   0.96341   1.000
    O494    O    0.89168   0.84906   0.46343   1.000
    O495    O    0.89169   0.84906   0.96347   1.000
loop_
    _geom_bond_atom_site_label_1
    _geom_bond_atom_site_label_2
    _geom_bond_distance
    _geom_bond_site_symmetry_2
    _ccdc_geom_bond_type
    Zn11   O434      2.04271      .   S
    Zn11   O454      1.96522  1_455   S
    Zn11   O487      1.96379  1_454   S
    Zn11   O467      2.04293  1_554   S
    O434   C283      1.28763  1_554   S
    O436   C285      1.28785  1_554   S
    O436   Zn12      2.04305  1_554   S
    O432   C281      1.28786  1_554   S
    O432   Zn8       2.04303  1_554   S
    O438   C287      1.28763  1_554   S
    H168   C304      1.09979      .   S
    H172   C308      1.09980      .   S
    H170   C306      1.09977      .   S
    H174   C310      1.09976      .   S
    H164   C308      1.09675      .   S
    H160   C304      1.09677      .   S
    H162   C306      1.09678      .   S
    H166   C310      1.09678      .   S
    O460   C300      1.24621      .   S
    O456   C296      1.24621      .   S
    O462   C302      1.24624      .   S
    O458   C298      1.24624      .   S
    C304   C312      1.52853      .   S
    C304   N336      1.49382      .   S
    C308   C316      1.52854      .   S
    C308   N340      1.49382      .   S
    C306   C314      1.52850      .   S
    C306   N338      1.49389      .   S
    C310   C318      1.52851      .   S
    C310   N342      1.49215      .   S
    C316   O476      1.24431      .   S
    C316   O469      1.28757  1_554   S
    C312   O472      1.24432      .   S
    C312   O465      1.28757  1_554   S
    C318   O478      1.24423      .   S
    C318   O471      1.28764  1_554   S
    C314   O474      1.24423      .   S
    C314   O467      1.28764  1_554   S
    H22    C214      1.09675      .   S
    H18    C210      1.09675      .   S
    H20    C212      1.09681      .   S
    H16    C208      1.09681      .   S
    C296   O448      1.29090      .   S
    C296   C288      1.52608      .   S
    C300   O452      1.29091      .   S
    C300   C292      1.52608      .   S
    C298   O450      1.29092      .   S
    C298   C290      1.52616      .   S
    C302   O454      1.29092      .   S
    C302   C294      1.52616      .   S
    O448   Zn12      1.96469  1_554   S
    O452   Zn8       1.96442  1_654   S
    H156   N356      1.04765      .   S
    H152   N352      1.04765      .   S
    H154   N354      1.04763      .   S
    H158   N358      1.04764      .   S
    N342   C214      1.49440      .   S
    N342   H54       1.03900      .   S
    N342   H198      1.03928      .   S
    N340   C212      1.49383      .   S
    N340   H52       1.03841      .   S
    N340   H196      1.03861      .   S
    N336   C208      1.49381      .   S
    N336   H48       1.03841      .   S
    N336   H192      1.03861      .   S
    N338   C210      1.49376      .   S
    N338   H50       1.03848      .   S
    N338   H194      1.03847      .   S
    H26    C210      1.09969      .   S
    H30    C214      1.09970      .   S
    H28    C212      1.09970      .   S
    H24    C208      1.09970      .   S
    C214   C222      1.52859      .   S
    C210   C218      1.52861      .   S
    C212   C220      1.52853      .   S
    C208   C216      1.52854      .   S
    H132   C292      1.09686      .   S
    H128   C288      1.09688      .   S
    H130   C290      1.09688      .   S
    H134   C294      1.09686      .   S
    N352   C288      1.49261      .   S
    N352   H56       1.04765      .   S
    N352   C224      1.49263      .   S
    N356   C292      1.49261      .   S
    N356   H60       1.04765      .   S
    N356   C228      1.49262      .   S
    N354   C290      1.49266      .   S
    N354   H58       1.04764      .   S
    N354   C226      1.49260      .   S
    N358   C294      1.49266      .   S
    N358   H62       1.04764      .   S
    N358   C230      1.49259      .   S
    C288   H136      1.09787      .   S
    C292   H140      1.09787      .   S
    C290   H138      1.09785      .   S
    C294   H142      1.09786      .   S
    O398   C238      1.24624      .   S
    O394   C234      1.24624      .   S
    O392   C232      1.24622      .   S
    O396   C236      1.24622      .   S
    H40    C224      1.09788      .   S
    H44    C228      1.09790      .   S
    H42    C226      1.09788      .   S
    H46    C230      1.09788      .   S
    C218   O368      1.28813  1_565   S
    C218   O378      1.24414      .   S
    C222   O372      1.28813  1_565   S
    C222   O382      1.24414      .   S
    C216   O370      1.28786      .   S
    C216   O376      1.24411      .   S
    C220   O374      1.28786      .   S
    C220   O380      1.24411      .   S
    C224   C232      1.52607      .   S
    C224   H32       1.09694      .   S
    C228   C236      1.52606      .   S
    C228   H36       1.09694      .   S
    C226   C234      1.52609      .   S
    C226   H34       1.09697      .   S
    C230   C238      1.52610      .   S
    C230   H38       1.09696      .   S
    O372   Zn4       2.04304  1_545   S
    O368   Zn0       2.04305  1_545   S
    O374   Zn6       2.04315      .   S
    O370   Zn2       2.04315      .   S
    C232   O384      1.29102      .   S
    C236   O388      1.29102      .   S
    C238   O390      1.29092      .   S
    C234   O386      1.29092      .   S
    O388   Zn0       1.96458  1_545   S
    O386   Zn6       1.96426  1_455   S
    O384   Zn4       1.96431  1_445   S
    O390   Zn2       1.96453      .   S
    Zn6    O416      1.96474  1_655   S
    Zn6    O404      2.04277      .   S
    Zn2    O420      1.96501      .   S
    Zn2    O400      2.04278      .   S
    Zn0    O422      1.96537      .   S
    Zn0    O402      2.04254      .   S
    Zn4    O418      1.96510  1_655   S
    Zn4    O406      2.04253      .   S
    O422   C270      1.29097      .   S
    O420   C268      1.29100      .   S
    O418   C266      1.29096      .   S
    O416   C264      1.29100      .   S
    H84    C260      1.09692      .   S
    H80    C256      1.09692      .   S
    H86    C262      1.09690      .   S
    H82    C258      1.09691      .   S
    O414   C254      1.24424      .   S
    O410   C250      1.24426      .   S
    O412   C252      1.24423      .   S
    O408   C248      1.24423      .   S
    C264   C256      1.52599      .   S
    C264   O424      1.24626      .   S
    C268   C260      1.52599      .   S
    C268   O428      1.24626      .   S
    C270   C262      1.52597      .   S
    C270   O430      1.24555      .   S
    C266   C258      1.52597      .   S
    C266   O426      1.24618      .   S
    O404   C254      1.28783      .   S
    O400   C250      1.28783      .   S
    O406   C252      1.28818  1_565   S
    O402   C248      1.28817  1_565   S
    H184   C320      1.09739      .   S
    H188   C324      1.09776      .   S
    H190   C326      1.09782      .   S
    H186   C322      1.09801      .   S
    C260   H92       1.09788      .   S
    C260   N364      1.49260      .   S
    C256   H88       1.09788      .   S
    C256   N360      1.49261      .   S
    C262   H94       1.09687      .   S
    C262   N366      1.49259      .   S
    C258   H90       1.09788      .   S
    C258   N362      1.49260      .   S
    C254   C246      1.52850      .   S
    C250   C242      1.52850      .   S
    C252   C244      1.52853      .   S
    C248   C240      1.52853      .   S
    H104   N360      1.04755      .   S
    H108   N364      1.04755      .   S
    H106   N362      1.04754      .   S
    H110   N366      1.04754      .   S
    H150   N350      1.03849      .   S
    H146   N346      1.03850      .   S
    H148   N348      1.03846      .   S
    H144   N344      1.03846      .   S
    C320   N360      1.49275      .   S
    C320   H176      1.09676      .   S
    C320   C328      1.52638      .   S
    C324   N364      1.49265      .   S
    C324   H180      1.09685      .   S
    C324   C332      1.52604      .   S
    C326   N366      1.49265      .   S
    C326   H182      1.09686      .   S
    C326   C334      1.52611      .   S
    C322   N362      1.49260      .   S
    C322   H178      1.09690      .   S
    C322   C330      1.52595      .   S
    N360   H200      1.04753      .   S
    N364   H204      1.04753      .   S
    N366   H206      1.04760      .   S
    N362   H202      1.04761      .   S
    H96    N344      1.03866      .   S
    H100   N348      1.03867      .   S
    H98    N346      1.03857      .   S
    H102   N350      1.03857      .   S
    C246   H78       1.09972      .   S
    C246   N350      1.49380      .   S
    C246   H70       1.09680      .   S
    C242   H74       1.09977      .   S
    C242   N346      1.49380      .   S
    C242   H66       1.09679      .   S
    C240   H72       1.10207      .   S
    C240   N344      1.49384      .   S
    C240   H64       1.09676      .   S
    C244   H76       1.09970      .   S
    C244   N348      1.49384      .   S
    C244   H68       1.09676      .   S
    N350   C278      1.49401      .   S
    N348   C276      1.49389      .   S
    N346   C274      1.49401      .   S
    N344   C272      1.49388      .   S
    O444   C284      1.24424      .   S
    O440   C280      1.24424      .   S
    O442   C282      1.24421      .   S
    O446   C286      1.24420      .   S
    O484   C332      1.29090      .   S
    O484   Zn9       1.96473  1_655   S
    O480   C328      1.29090      .   S
    O480   Zn13      1.96499      .   S
    O482   C330      1.29090      .   S
    O482   Zn14      1.96472      .   S
    O486   C334      1.29091      .   S
    O486   Zn10      1.96445  1_655   S
    C328   O488      1.24637      .   S
    C332   O492      1.24637      .   S
    C330   O490      1.24620      .   S
    C334   O494      1.24620      .   S
    C286   C278      1.52854      .   S
    C286   O439      1.28793      .   S
    C284   C276      1.52858      .   S
    C284   O437      1.28747      .   S
    C282   C274      1.52856      .   S
    C282   O435      1.28793      .   S
    C280   C272      1.52858      .   S
    C280   O433      1.28747      .   S
    C272   H112      1.09621      .   S
    C272   H120      1.09971      .   S
    C276   H116      1.09621      .   S
    C276   H124      1.09971      .   S
    C274   H114      1.09667      .   S
    C274   H122      1.09971      .   S
    C278   H118      1.09669      .   S
    C278   H126      1.09970      .   S
    O464   Zn9       2.04283      .   S
    O464   C313      1.28718      .   S
    O468   Zn13      2.04282      .   S
    O468   C317      1.28719      .   S
    O466   Zn10      2.04292      .   S
    O466   C315      1.28782      .   S
    O470   Zn14      2.04292      .   S
    O470   C319      1.28782      .   S
    Zn13   O437      2.04329      .   S
    Zn13   O449      1.96453      .   S
    Zn9    O433      2.04328      .   S
    Zn9    O453      1.96427  1_455   S
    Zn10   O435      2.04320      .   S
    Zn10   O455      1.96440  1_455   S
    Zn14   O439      2.04320      .   S
    Zn14   O451      1.96468      .   S
    H173   C309      1.10028      .   S
    H169   C305      1.09972      .   S
    H171   C307      1.09980      .   S
    H175   C311      1.09972      .   S
    H167   C311      1.09672      .   S
    H163   C307      1.09673      .   S
    H165   C309      1.09673      .   S
    H161   C305      1.09671      .   S
    O461   C301      1.24628      .   S
    O457   C297      1.24628      .   S
    O459   C299      1.24625      .   S
    O463   C303      1.24625      .   S
    C309   C317      1.52861      .   S
    C309   N341      1.49385      .   S
    C305   C313      1.52863      .   S
    C305   N337      1.49384      .   S
    C307   C315      1.52848      .   S
    C307   N339      1.49378      .   S
    C311   C319      1.52846      .   S
    C311   N343      1.49379      .   S
    C313   O473      1.24457      .   S
    C317   O477      1.24458      .   S
    C319   O479      1.24420      .   S
    C315   O475      1.24420      .   S
    H21    C213      1.09675      .   S
    H17    C209      1.09676      .   S
    H23    C215      1.09674      .   S
    H19    C211      1.09675      .   S
    C301   O453      1.29088      .   S
    C301   C293      1.52617      .   S
    C297   O449      1.29088      .   S
    C297   C289      1.52617      .   S
    C303   O455      1.29090      .   S
    C303   C295      1.52601      .   S
    C299   O451      1.29089      .   S
    C299   C291      1.52601      .   S
    H153   N353      1.04785      .   S
    H157   N357      1.04785      .   S
    H159   N359      1.04755      .   S
    H155   N355      1.04755      .   S
    N337   C209      1.49379      .   S
    N337   H49       1.03853      .   S
    N337   H193      1.03863      .   S
    N341   C213      1.49379      .   S
    N341   H53       1.03854      .   S
    N341   H197      1.03862      .   S
    N339   C211      1.49380      .   S
    N339   H51       1.03866      .   S
    N339   H195      1.03849      .   S
    N343   C215      1.49380      .   S
    N343   H55       1.03871      .   S
    N343   H199      1.03852      .   S
    H25    C209      1.09945      .   S
    H27    C211      1.09973      .   S
    H31    C215      1.09973      .   S
    H29    C213      1.09972      .   S
    C209   C217      1.52858      .   S
    C213   C221      1.52856      .   S
    C211   C219      1.52865      .   S
    C215   C223      1.52865      .   S
    H129   C289      1.09684      .   S
    H133   C293      1.09684      .   S
    H131   C291      1.09690      .   S
    H135   C295      1.09689      .   S
    N357   C293      1.49263      .   S
    N357   H61       1.04760      .   S
    N357   C229      1.49265      .   S
    N353   C289      1.49263      .   S
    N353   H57       1.04760      .   S
    N353   C225      1.49265      .   S
    N355   C291      1.49266      .   S
    N355   H59       1.04760      .   S
    N355   C227      1.49274      .   S
    N359   C295      1.49266      .   S
    N359   H63       1.04760      .   S
    N359   C231      1.49274      .   S
    C289   H137      1.09776      .   S
    C293   H141      1.09776      .   S
    C291   H139      1.09798      .   S
    C295   H143      1.09798      .   S
    O399   C239      1.24616      .   S
    O395   C235      1.24616      .   S
    O393   C233      1.24628      .   S
    O397   C237      1.24628      .   S
    H45    C229      1.09789      .   S
    H41    C225      1.09790      .   S
    H47    C231      1.09788      .   S
    H43    C227      1.09789      .   S
    C217   O371      1.28781      .   S
    C217   O377      1.24422      .   S
    C221   O375      1.28782      .   S
    C221   O381      1.24422      .   S
    C219   O369      1.28810  1_565   S
    C219   O379      1.24419      .   S
    C223   O373      1.28810  1_565   S
    C223   O383      1.24419      .   S
    C225   C233      1.52604      .   S
    C225   H33       1.09687      .   S
    C229   C237      1.52604      .   S
    C229   H37       1.09687      .   S
    C227   C235      1.52607      .   S
    C227   H35       1.09678      .   S
    C231   C239      1.52607      .   S
    C231   H39       1.09678      .   S
    O375   Zn7       2.04304      .   S
    O371   Zn3       2.04305      .   S
    O369   Zn1       2.04294      .   S
    O373   Zn5       2.04294      .   S
    C237   O389      1.29030      .   S
    C233   O385      1.29030      .   S
    C239   O391      1.29103      .   S
    C235   O387      1.29102      .   S
    O389   Zn1       1.96510      .   S
    O385   Zn5       1.96483  1_455   S
    O391   Zn3       1.96481      .   S
    O387   Zn7       1.96455  1_455   S
    Zn7    O417      1.96439  1_655   S
    Zn7    O405      2.04290      .   S
    Zn3    O421      1.96466      .   S
    Zn3    O401      2.04290      .   S
    Zn1    O423      1.96491  1_545   S
    Zn1    O403      2.04263  1_545   S
    Zn5    O419      1.96462  1_645   S
    Zn5    O407      2.04263  1_545   S
    O419   C267      1.29114      .   S
    O423   C271      1.29098      .   S
    O421   C269      1.29007      .   S
    O417   C265      1.29007      .   S
    H81    C257      1.09692      .   S
    H85    C261      1.09570      .   S
    H83    C259      1.09699      .   S
    H87    C263      1.09699      .   S
    O411   C251      1.24438      .   S
    O415   C255      1.24415      .   S
    O413   C253      1.24417      .   S
    O409   C249      1.24417      .   S
    C265   C257      1.52583      .   S
    C265   O425      1.24591      .   S
    C269   C261      1.52600      .   S
    C269   O429      1.24593      .   S
    C271   C263      1.52598      .   S
    C271   O431      1.24632      .   S
    C267   C259      1.52598      .   S
    C267   O427      1.24632      .   S
    O401   C251      1.28786      .   S
    O405   C255      1.28786      .   S
    O403   C249      1.28829  1_565   S
    O407   C253      1.28829  1_565   S
    H185   C321      1.09792      .   S
    H189   C325      1.09792      .   S
    H191   C327      1.09825      .   S
    H187   C323      1.09806      .   S
    C261   H93       1.09798      .   S
    C261   N365      1.49308      .   S
    C257   H89       1.09786      .   S
    C257   N361      1.49219      .   S
    C259   H91       1.09788      .   S
    C259   N363      1.49256      .   S
    C263   H95       1.09786      .   S
    C263   N367      1.49256      .   S
    C255   C247      1.52863      .   S
    C251   C243      1.52864      .   S
    C253   C245      1.52849      .   S
    C249   C241      1.52850      .   S
    H105   N361      1.04760      .   S
    H109   N365      1.04762      .   S
    H107   N363      1.04756      .   S
    H111   N367      1.04756      .   S
    H151   N351      1.03860      .   S
    H147   N347      1.03860      .   S
    H149   N349      1.03848      .   S
    H145   N345      1.03848      .   S
    C325   N365      1.49249      .   S
    C325   H181      1.09688      .   S
    C325   C333      1.52603      .   S
    C321   N361      1.49248      .   S
    C321   H177      1.09688      .   S
    C321   C329      1.52604      .   S
    C323   N363      1.49264      .   S
    C323   H179      1.09681      .   S
    C323   C331      1.52633      .   S
    C327   N367      1.49258      .   S
    C327   H183      1.09686      .   S
    C327   C335      1.52499      .   S
    N365   H205      1.04809      .   S
    N361   H201      1.04810      .   S
    N367   H207      1.04751      .   S
    N363   H203      1.04751      .   S
    H97    N345      1.03848      .   S
    H101   N349      1.03847      .   S
    H103   N351      1.03845      .   S
    H99    N347      1.03845      .   S
    C247   H79       1.09973      .   S
    C247   N351      1.49376      .   S
    C247   H71       1.09673      .   S
    C243   H75       1.09993      .   S
    C243   N347      1.49379      .   S
    C243   H67       1.09673      .   S
    C245   H77       1.09971      .   S
    C245   N349      1.49379      .   S
    C245   H69       1.09676      .   S
    C241   H73       1.09971      .   S
    C241   N345      1.49377      .   S
    C241   H65       1.09676      .   S
    N351   C279      1.49398      .   S
    N347   C275      1.49398      .   S
    N345   C273      1.49379      .   S
    N349   C277      1.49378      .   S
    O443   C283      1.24489      .   S
    O441   C281      1.24404      .   S
    O447   C287      1.24421      .   S
    O447   Zn15      1.72501      .   S
    O445   C285      1.24403      .   S
    O485   C333      1.29093      .   S
    O485   Zn8       1.96454  1_655   S
    O481   C329      1.29093      .   S
    O481   Zn12      1.96481      .   S
    O487   C335      1.29057      .   S
    O483   C331      1.29094      .   S
    O483   Zn15      1.46315      .   S
    C329   O489      1.24628      .   S
    C333   O493      1.24628      .   S
    C335   O495      1.24757      .   S
    C331   O491      1.24623      .   S
    C285   C277      1.52859      .   S
    C281   C273      1.52857      .   S
    C283   C275      1.52860      .   S
    C287   C279      1.52861      .   S
    C273   H113      1.09677      .   S
    C273   H121      1.09976      .   S
    C275   H115      1.09671      .   S
    C275   H123      1.09973      .   S
    C277   H117      1.09676      .   S
    C277   H125      1.09977      .   S
    C279   H119      1.09672      .   S
    C279   H127      1.09972      .   S
    O465   Zn8       2.04277      .   S
    O469   Zn12      2.04278      .   S
