# CIF file generated by openbabel 2.4.90, see http://openbabel.sf.net
data_I
_chemical_name_common ''
_cell_length_a 13.996
_cell_length_b 14.622
_cell_length_c 18.585
_cell_angle_alpha 69.124
_cell_angle_beta 67.88
_cell_angle_gamma 61.406
_space_group_name_H-M_alt 'P 1'
_space_group_name_Hall 'P 1'
loop_
    _symmetry_equiv_pos_as_xyz
    x,y,z
loop_
    _atom_site_label
    _atom_site_type_symbol
    _atom_site_fract_x
    _atom_site_fract_y
    _atom_site_fract_z
    _atom_site_occupancy
    N0      N    0.23112   0.64476   0.87001   1.000
    N1      N    0.72427   0.84028   0.67655   1.000
    N2      N    0.60412   0.07705   0.98281   1.000
    N3      N    0.24649   0.14942   0.35740   1.000
    N4      N    0.73964   0.34496   0.16249   1.000
    N5      N    0.65336   0.40737   0.55732   1.000
    N6      N    0.36663   0.91267   0.04884   1.000
    N7      N    0.31740   0.58234   0.47665   1.000
    Zr8     Zr   0.85993   0.74179   0.82982   1.000
    O9      O    0.78337   0.84015   0.87670   1.000
    O10     O    0.97142   0.71144   0.84553   1.000
    Zr11    Zr   0.60699   0.54877   0.93217   1.000
    O12     O    0.65000   0.48029   0.99727   1.000
    O13     O    0.64682   0.62669   0.85420   1.000
    O14     O    0.49956   0.56729   0.91458   1.000
    O15     O    0.53545   0.65616   0.96763   1.000
    Zr16    Zr   0.36376   0.44094   0.10180   1.000
    O17     O    0.32394   0.36302   0.17977   1.000
    O18     O    0.43530   0.33355   0.06576   1.000
    O19     O    0.32075   0.50942   0.03633   1.000
    O20     O    0.47119   0.42243   0.11902   1.000
    Zr21    Zr   0.41958   0.74410   0.71990   1.000
    O22     O    0.48847   0.64530   0.67070   1.000
    Zr23    Zr   0.89430   0.05356   0.41561   1.000
    O24     O    0.85423   0.13139   0.33825   1.000
    O25     O    0.85130   0.98363   0.48831   1.000
    O26     O    0.82291   0.15845   0.45732   1.000
    O27     O    0.00499   0.07188   0.39903   1.000
    Zr28    Zr   0.11082   0.24793   0.20410   1.000
    O29     O    0.99934   0.27828   0.18804   1.000
    O30     O    0.18738   0.14957   0.15666   1.000
    Zr31    Zr   0.07646   0.93614   0.61836   1.000
    O32     O    0.14786   0.83125   0.57666   1.000
    O33     O    0.96577   0.91782   0.63493   1.000
    O34     O    0.11653   0.85832   0.69535   1.000
    O35     O    0.11946   0.00606   0.54565   1.000
    Zr36    Zr   0.55117   0.24562   0.31401   1.000
    O37     O    0.48228   0.34442   0.36323   1.000
    O38     O    0.14955   0.22039   0.24842   1.000
    O39     O    0.50298   0.77993   0.70837   1.000
    O40     O    0.36457   0.71635   0.76347   1.000
    O41     O    0.46778   0.20978   0.32556   1.000
    O42     O    0.60619   0.27337   0.27009   1.000
    O43     O    0.82121   0.76933   0.78551   1.000
loop_
    _geom_bond_atom_site_label_1
    _geom_bond_atom_site_label_2
    _geom_bond_distance
    _geom_bond_site_symmetry_2
    _ccdc_geom_bond_type
    Zr8    O9        1.64020      .   S
    N2     O9        3.87384  1_545   S
    Zr8    O10       1.51807      .   S
    N0     O10       3.45064  1_455   S
    Zr11   O12       1.39172      .   S
    N4     O12       3.33361  1_554   S
    Zr11   O13       1.59115      .   S
    N1     O13       3.87633      .   S
    Zr11   O14       1.53563      .   S
    N0     O14       3.69951      .   S
    Zr11   O15       1.62429      .   S
    N6     O15       3.84628  1_554   S
    Zr16   O17       1.59110      .   S
    N3     O17       3.87621      .   S
    Zr16   O18       1.62987      .   S
    N2     O18       3.86280  1_556   S
    Zr16   O19       1.39701      .   S
    N0     O19       3.35104  1_556   S
    Zr16   O20       1.53214      .   S
    N4     O20       3.68945      .   S
    Zr21   O22       1.67244      .   S
    N5     O22       3.96830      .   S
    Zr23   O24       1.58329      .   S
    N4     O24       3.85693      .   S
    Zr23   O25       1.49173  1_545   S
    N1     O25       3.66746      .   S
    Zr23   O26       1.65785      .   S
    N5     O26       3.94523      .   S
    Zr23   O27       1.59555  1_655   S
    N3     O27       3.79242      .   S
    Zr28   O29       1.52118  1_455   S
    N4     O29       3.45922      .   S
    Zr28   O30       1.64649      .   S
    N6     O30       3.89253  1_565   S
    Zr31   O32       1.65782      .   S
    N7     O32       3.94520      .   S
    Zr31   O33       1.59556  1_455   S
    N1     O33       3.79238      .   S
    Zr31   O34       1.57791      .   S
    N0     O34       3.84222      .   S
    Zr31   O35       1.49181  1_565   S
    N3     O35       3.66765      .   S
    Zr36   O37       1.67265      .   S
    N7     O37       3.96861      .   S
    Zr28   O38       1.01264      .   S
    N3     O38       2.49870      .   S
    Zr21   O39       1.41419      .   S
    N1     O39       3.40387      .   S
    Zr21   O40       1.00425      .   S
    N0     O40       2.47259      .   S
    Zr36   O41       1.41407      .   S
    N3     O41       3.40368      .   S
    Zr36   O42       1.00672      .   S
    N4     O42       2.47991      .   S
    Zr8    O43       1.01246      .   S
    N1     O43       2.49834      .   S
