# CIF file generated by openbabel 2.4.90, see http://openbabel.sf.net
data_I
_chemical_name_common ''
_cell_length_a 13.996
_cell_length_b 14.622
_cell_length_c 18.585
_cell_angle_alpha 69.124
_cell_angle_beta 67.88
_cell_angle_gamma 61.406
_space_group_name_H-M_alt 'P 1'
_space_group_name_Hall 'P 1'
loop_
    _symmetry_equiv_pos_as_xyz
    x,y,z
loop_
    _atom_site_label
    _atom_site_type_symbol
    _atom_site_fract_x
    _atom_site_fract_y
    _atom_site_fract_z
    _atom_site_occupancy
    C0      C    0.36376   0.44094   0.10180   1.000
    C1      C    0.55117   0.24562   0.31401   1.000
    C2      C    0.89430   0.05356   0.41561   1.000
    C3      C    0.11082   0.24793   0.20410   1.000
    C4      C    0.60699   0.54877   0.93217   1.000
    C5      C    0.41958   0.74410   0.71990   1.000
    C6      C    0.07646   0.93614   0.61836   1.000
    C7      C    0.85993   0.74179   0.82982   1.000
    C8      C    0.45993   0.60129   0.21039   1.000
    C9      C    0.56829   0.66202   0.25115   1.000
    C10     C    0.77164   0.54637   0.24735   1.000
    C11     C    0.88686   0.02228   0.19230   1.000
    C12     C    0.90500   0.04928   0.04793   1.000
    C13     C    0.81929   0.21851   0.00000   1.000
    C14     C    0.34319   0.35597   0.00000   1.000
    C15     C    0.45173   0.20278   0.93850   1.000
    C16     C    0.67650   0.07349   0.06821   1.000
    C17     C    0.56153   0.23259   0.12765   1.000
    C18     C    0.89995   0.85123   0.91698   1.000
    C19     C    0.79723   0.99692   0.98542   1.000
    C20     C    0.49485   0.02209   0.95257   1.000
    C21     C    0.61027   0.87555   0.88573   1.000
    C22     C    0.26909   0.89969   0.30652   1.000
    C23     C    0.47890   0.83988   0.26578   1.000
    C24     C    0.56182   0.95572   0.27048   1.000
    C25     C    0.10310   0.47169   0.32540   1.000
    C26     C    0.00422   0.44488   0.46990   1.000
    C27     C    0.03555   0.25834   0.55006   1.000
    C28     C    0.68928   0.12234   0.54506   1.000
    C29     C    0.57826   0.27573   0.61298   1.000
    C30     C    0.80931   0.42024   0.44846   1.000
    C31     C    0.91106   0.26112   0.38928   1.000
    C32     C    0.65639   0.63197   0.63316   1.000
    C33     C    0.76852   0.47843   0.56530   1.000
    C34     C    0.45599   0.45760   0.59859   1.000
    C35     C    0.35747   0.61167   0.66484   1.000
    C36     C    0.51083   0.38843   0.82358   1.000
    C37     C    0.40247   0.32769   0.78282   1.000
    C38     C    0.19912   0.44334   0.78662   1.000
    C39     C    0.08390   0.96743   0.84163   1.000
    C40     C    0.06576   0.94043   0.98604   1.000
    C41     C    0.15148   0.77119   0.03236   1.000
    C42     C    0.62757   0.63374   0.02742   1.000
    C43     C    0.51903   0.78695   0.09547   1.000
    C44     C    0.29426   0.91622   0.96576   1.000
    C45     C    0.40923   0.75711   0.90633   1.000
    C46     C    0.07081   0.13849   0.11699   1.000
    C47     C    0.17353   0.99280   0.04855   1.000
    C48     C    0.47591   0.96763   0.08100   1.000
    C49     C    0.36049   0.11417   0.14824   1.000
    C50     C    0.70167   0.09002   0.72745   1.000
    C51     C    0.49186   0.14983   0.76818   1.000
    C52     C    0.40894   0.03399   0.76348   1.000
    C53     C    0.86766   0.51802   0.70850   1.000
    C54     C    0.96655   0.54480   0.56409   1.000
    C55     C    0.93522   0.73135   0.48392   1.000
    C56     C    0.28147   0.86736   0.48891   1.000
    C57     C    0.39249   0.71398   0.42099   1.000
    C58     C    0.16146   0.56945   0.58553   1.000
    C59     C    0.05970   0.72857   0.64470   1.000
    C60     C    0.31436   0.35774   0.40082   1.000
    C61     C    0.20224   0.51127   0.46868   1.000
    C62     C    0.51476   0.53211   0.43538   1.000
    C63     C    0.61329   0.37805   0.36912   1.000
    C64     C    0.52875   0.42083   0.16840   1.000
    C65     C    0.60047   0.45589   0.18622   1.000
    C66     C    0.54848   0.55334   0.20940   1.000
    C67     C    0.60902   0.58684   0.23182   1.000
    C68     C    0.72170   0.52297   0.23000   1.000
    C69     C    0.77647   0.42696   0.20382   1.000
    C70     C    0.71613   0.39179   0.18099   1.000
    C71     C    0.89959   0.36837   0.20023   1.000
    C72     C    0.79601   0.16323   0.27929   1.000
    C73     C    0.80711   0.18953   0.19155   1.000
    C74     C    0.85740   0.10230   0.15557   1.000
    C75     C    0.86735   0.11780   0.07510   1.000
    C76     C    0.82739   0.22115   0.03025   1.000
    C77     C    0.78041   0.30966   0.06437   1.000
    C78     C    0.76972   0.29506   0.14608   1.000
    C79     C    0.74340   0.41944   0.01071   1.000
    C80     C    0.41590   0.28758   0.00000   1.000
    C81     C    0.47624   0.20116   0.98819   1.000
    C82     C    0.56883   0.11525   0.00000   1.000
    C83     C    0.60741   0.13809   0.04300   1.000
    C84     C    0.54348   0.22682   0.07760   1.000
    C85     C    0.80902   0.89314   0.92677   1.000
    C86     C    0.74841   0.97774   0.96520   1.000
    C87     C    0.63580   0.02319   0.97515   1.000
    C88     C    0.58095   0.99273   0.94599   1.000
    C89     C    0.64673   0.90693   0.90894   1.000
    C90     C    0.11891   0.07246   0.34932   1.000
    C91     C    0.24349   0.03785   0.33131   1.000
    C92     C    0.30830   0.94783   0.30779   1.000
    C93     C    0.42470   0.91483   0.28540   1.000
    C94     C    0.47121   0.97883   0.28766   1.000
    C95     C    0.40761   0.06744   0.31414   1.000
    C96     C    0.28930   0.10221   0.33679   1.000
    C97     C    0.46804   0.12612   0.31830   1.000
    C98     C    0.23879   0.33069   0.23820   1.000
    C99     C    0.18878   0.30445   0.32611   1.000
    C100    C    0.11653   0.39171   0.36216   1.000
    C101    C    0.06163   0.37632   0.44265   1.000
    C102    C    0.07938   0.27304   0.48745   1.000
    C103    C    0.15439   0.18448   0.45327   1.000
    C104    C    0.21107   0.19896   0.37162   1.000
    C105    C    0.17224   0.07475   0.50676   1.000
    C106    C    0.71249   0.19024   0.52682   1.000
    C107    C    0.65090   0.27677   0.56319   1.000
    C108    C    0.68435   0.36209   0.53718   1.000
    C109    C    0.77960   0.35611   0.47324   1.000
    C110    C    0.83740   0.26732   0.43937   1.000
    C111    C    0.61612   0.59081   0.62360   1.000
    C112    C    0.67735   0.50587   0.58553   1.000
    C113    C    0.62167   0.45429   0.57583   1.000
    C114    C    0.50433   0.49325   0.60494   1.000
    C115    C    0.44850   0.57929   0.64167   1.000
    C116    C    0.44200   0.56888   0.86550   1.000
    C117    C    0.37029   0.53383   0.84775   1.000
    C118    C    0.42228   0.43638   0.82455   1.000
    C119    C    0.36174   0.40287   0.80215   1.000
    C120    C    0.24906   0.46674   0.80395   1.000
    C121    C    0.19429   0.56276   0.83015   1.000
    C122    C    0.25463   0.59793   0.85298   1.000
    C123    C    0.07117   0.62134   0.83374   1.000
    C124    C    0.17474   0.82648   0.75468   1.000
    C125    C    0.16365   0.80018   0.84242   1.000
    C126    C    0.11336   0.88741   0.87840   1.000
    C127    C    0.10341   0.87192   0.95886   1.000
    C128    C    0.14337   0.76856   0.00000   1.000
    C129    C    0.19035   0.68006   0.96960   1.000
    C130    C    0.20104   0.69466   0.88780   1.000
    C131    C    0.22736   0.57027   0.00000   1.000
    C132    C    0.55485   0.70213   0.00930   1.000
    C133    C    0.49452   0.78856   0.04570   1.000
    C134    C    0.40192   0.87447   0.02001   1.000
    C135    C    0.36334   0.85163   0.99028   1.000
    C136    C    0.42727   0.76289   0.95629   1.000
    C137    C    0.16174   0.09658   0.10720   1.000
    C138    C    0.22235   0.01198   0.06877   1.000
    C139    C    0.33496   0.96653   0.05882   1.000
    C140    C    0.38981   0.99699   0.08798   1.000
    C141    C    0.32403   0.08279   0.12500   1.000
    C142    C    0.85185   0.91725   0.68460   1.000
    C143    C    0.72728   0.95186   0.70265   1.000
    C144    C    0.66247   0.04188   0.72610   1.000
    C145    C    0.54606   0.07488   0.74857   1.000
    C146    C    0.49956   0.01088   0.74630   1.000
    C147    C    0.56315   0.92226   0.71982   1.000
    C148    C    0.68146   0.88750   0.69717   1.000
    C149    C    0.50272   0.86359   0.71560   1.000
    C150    C    0.73197   0.65902   0.79569   1.000
    C151    C    0.78198   0.68526   0.70786   1.000
    C152    C    0.85424   0.59799   0.67180   1.000
    C153    C    0.90914   0.61338   0.59133   1.000
    C154    C    0.89139   0.71665   0.54650   1.000
    C155    C    0.81639   0.80522   0.58070   1.000
    C156    C    0.75970   0.79074   0.66235   1.000
    C157    C    0.79853   0.91494   0.52720   1.000
    C158    C    0.25826   0.79946   0.50715   1.000
    C159    C    0.31985   0.71293   0.47078   1.000
    C160    C    0.28641   0.62761   0.49679   1.000
    C161    C    0.19116   0.63358   0.56074   1.000
    C162    C    0.13336   0.72237   0.59461   1.000
    C163    C    0.35464   0.39890   0.41035   1.000
    C164    C    0.29341   0.48384   0.44845   1.000
    C165    C    0.34909   0.53541   0.45810   1.000
    C166    C    0.46642   0.49645   0.42903   1.000
    C167    C    0.52225   0.41042   0.39229   1.000
    C168    C    0.45536   0.30959   0.05147   1.000
    C169    C    0.75908   0.85813   0.89884   1.000
    C170    C    0.80502   0.18506   0.46584   1.000
    C171    C    0.50316   0.62712   0.65150   1.000
    C172    C    0.51540   0.68012   0.98251   1.000
    C173    C    0.21168   0.13159   0.13513   1.000
    C174    C    0.16573   0.80464   0.56814   1.000
    C175    C    0.46760   0.36259   0.38247   1.000
    C176    C    0.47144   0.48478   0.11820   1.000
    C177    C    0.52631   0.32945   0.20500   1.000
    C178    C    0.70240   0.20847   0.32640   1.000
    C179    C    0.88311   0.09337   0.30297   1.000
    C180    C    0.94125   0.38963   0.23934   1.000
    C181    C    0.96135   0.29669   0.15886   1.000
    C182    C    0.75698   0.49287   0.01873   1.000
    C183    C    0.68580   0.40857   0.99231   1.000
    C184    C    0.07543   0.00842   0.39942   1.000
    C185    C    0.06145   0.16390   0.31280   1.000
    C186    C    0.23717   0.28537   0.19138   1.000
    C187    C    0.27970   0.40059   0.21435   1.000
    C188    C    0.57039   0.10468   0.27970   1.000
    C189    C    0.41637   0.19796   0.35950   1.000
    C190    C    0.26679   0.00059   0.49914   1.000
    C191    C    0.08041   0.06898   0.55862   1.000
    C192    C    0.49932   0.50495   0.91577   1.000
    C193    C    0.44445   0.66027   0.82891   1.000
    C194    C    0.26835   0.78126   0.70757   1.000
    C195    C    0.08764   0.89635   0.73101   1.000
    C196    C    0.02951   0.60008   0.79463   1.000
    C197    C    0.00941   0.69302   0.87510   1.000
    C198    C    0.21378   0.49684   0.00000   1.000
    C199    C    0.28496   0.58114   0.04166   1.000
    C200    C    0.89533   0.98129   0.63450   1.000
    C201    C    0.90932   0.82581   0.72111   1.000
    C202    C    0.73359   0.70434   0.84259   1.000
    C203    C    0.69105   0.58913   0.81963   1.000
    C204    C    0.40037   0.88503   0.75427   1.000
    C205    C    0.55439   0.79176   0.67445   1.000
    C206    C    0.70399   0.98910   0.53480   1.000
    C207    C    0.89036   0.92070   0.47534   1.000
    O208    O    0.58812   0.12667   0.02150   1.000
    O209    O    0.60231   0.06922   0.98757   1.000
    O210    O    0.52254   0.15821   0.99409   1.000
    O211    O    0.37954   0.32178   0.00000   1.000
    O212    O    0.43563   0.29859   0.02574   1.000
    O213    O    0.44607   0.24437   0.99409   1.000
    O214    O    0.22057   0.53356   0.00000   1.000
    O215    O    0.14743   0.76988   0.01618   1.000
    O216    O    0.12339   0.82024   0.97943   1.000
    O217    O    0.16686   0.72431   0.98480   1.000
    O218    O    0.25616   0.57571   0.02083   1.000
    O219    O    0.20885   0.62516   0.98480   1.000
    O220    O    0.82334   0.21983   0.01512   1.000
    O221    O    0.59121   0.66794   0.01836   1.000
    O222    O    0.52469   0.74535   0.02750   1.000
    O223    O    0.53513   0.69113   0.99590   1.000
    O224    O    0.75019   0.45616   0.01472   1.000
    O225    O    0.76191   0.36455   0.03754   1.000
    O226    O    0.71460   0.41400   0.00151   1.000
    O227    O    0.44822   0.83151   0.03286   1.000
    O228    O    0.36844   0.92050   0.03941   1.000
    O229    O    0.38263   0.86305   0.00515   1.000
    O230    O    0.80390   0.26540   0.04731   1.000
    O231    O    0.84737   0.16947   0.05267   1.000
    O232    O    0.32436   0.51104   0.07173   1.000
    O233    O    0.64196   0.10579   0.05561   1.000
    O234    O    0.57545   0.18245   0.06030   1.000
    O235    O    0.50677   0.78775   0.07058   1.000
    O236    O    0.88618   0.08354   0.06152   1.000
    O237    O    0.19794   0.00239   0.05866   1.000
    O238    O    0.49942   0.26820   0.06453   1.000
    O239    O    0.40956   0.37527   0.07663   1.000
    O240    O    0.27866   0.98926   0.06379   1.000
    O241    O    0.36238   0.98176   0.07340   1.000
    O242    O    0.77507   0.30236   0.10522   1.000
    O243    O    0.19205   0.05428   0.08798   1.000
    O244    O    0.86238   0.11005   0.11533   1.000
    O245    O    0.55250   0.22971   0.10263   1.000
    O246    O    0.43286   0.98231   0.08449   1.000
    O247    O    0.35692   0.03989   0.10649   1.000
    O248    O    0.41760   0.46286   0.11000   1.000
    O249    O    0.32173   0.42077   0.15807   1.000
    O250    O    0.11628   0.11754   0.11210   1.000
    O251    O    0.18671   0.11409   0.12117   1.000
    O252    O    0.50009   0.45280   0.14330   1.000
    O253    O    0.26786   0.10719   0.13006   1.000
    O254    O    0.34226   0.09848   0.13662   1.000
    O255    O    0.16125   0.18976   0.16961   1.000
    O256    O    0.74293   0.34342   0.16353   1.000
    O257    O    0.78842   0.24230   0.16881   1.000
    O258    O    0.83226   0.14592   0.17356   1.000
    O259    O    0.87213   0.06229   0.17393   1.000
    O260    O    0.93047   0.33253   0.17954   1.000
    O261    O    0.03609   0.27231   0.18148   1.000
    O262    O    0.56461   0.43836   0.17731   1.000
    O263    O    0.52753   0.37514   0.18670   1.000
    O264    O    0.65830   0.42384   0.18360   1.000
    O265    O    0.74630   0.40937   0.19240   1.000
    O266    O    0.57448   0.50461   0.19781   1.000
    O267    O    0.17400   0.26665   0.19774   1.000
    O268    O    0.23798   0.30803   0.21479   1.000
    O269    O    0.80156   0.17638   0.23542   1.000
    O270    O    0.83803   0.39766   0.20202   1.000
    O271    O    0.92042   0.37900   0.21979   1.000
    O272    O    0.74909   0.47496   0.21691   1.000
    O273    O    0.08614   0.20592   0.25845   1.000
    O274    O    0.53874   0.28753   0.25950   1.000
    O275    O    0.50421   0.57731   0.20989   1.000
    O276    O    0.57875   0.57009   0.22061   1.000
    O277    O    0.25925   0.36564   0.22628   1.000
    O278    O    0.66536   0.55491   0.23091   1.000
    O279    O    0.74667   0.53467   0.23867   1.000
    O280    O    0.58865   0.62443   0.24148   1.000
    O281    O    0.21379   0.31757   0.28215   1.000
    O282    O    0.45180   0.87735   0.27559   1.000
    O283    O    0.51652   0.96727   0.27907   1.000
    O284    O    0.83956   0.12830   0.29113   1.000
    O285    O    0.74920   0.18585   0.30284   1.000
    O286    O    0.56078   0.17515   0.29686   1.000
    O287    O    0.51922   0.11540   0.29900   1.000
    O288    O    0.44795   0.94683   0.28653   1.000
    O289    O    0.36650   0.93133   0.29659   1.000
    O290    O    0.43941   0.02313   0.30090   1.000
    O291    O    0.88870   0.07346   0.35929   1.000
    O292    O    0.28870   0.92376   0.30715   1.000
    O293    O    0.27589   0.99284   0.31955   1.000
    O294    O    0.09018   0.11818   0.33106   1.000
    O295    O    0.62679   0.22704   0.32021   1.000
    O296    O    0.48377   0.22179   0.33675   1.000
    O297    O    0.50939   0.30410   0.34824   1.000
    O298    O    0.43783   0.09678   0.31622   1.000
    O299    O    0.34846   0.08483   0.32546   1.000
    O300    O    0.44220   0.16204   0.33890   1.000
    O301    O    0.10981   0.43170   0.34378   1.000
    O302    O    0.15265   0.34808   0.34414   1.000
    O303    O    0.19993   0.25170   0.34886   1.000
    O304    O    0.26639   0.07003   0.33405   1.000
    O305    O    0.18120   0.05515   0.34032   1.000
    O306    O    0.25019   0.15059   0.35420   1.000
    O307    O    0.09717   0.04044   0.37437   1.000
    O308    O    0.08908   0.38401   0.40241   1.000
    O309    O    0.56777   0.39424   0.38070   1.000
    O310    O    0.18273   0.19172   0.41244   1.000
    O311    O    0.49492   0.38651   0.38738   1.000
    O312    O    0.41112   0.38075   0.39641   1.000
    O313    O    0.87423   0.26422   0.41432   1.000
    O314    O    0.49434   0.45344   0.41066   1.000
    O315    O    0.98487   0.03099   0.40751   1.000
    O316    O    0.33450   0.37832   0.40558   1.000
    O317    O    0.32402   0.44137   0.42940   1.000
    O318    O    0.84966   0.11931   0.44072   1.000
    O319    O    0.89233   0.98713   0.44547   1.000
    O320    O    0.35617   0.71345   0.44588   1.000
    O321    O    0.49059   0.51428   0.43221   1.000
    O322    O    0.40776   0.51593   0.44356   1.000
    O323    O    0.82121   0.22619   0.45260   1.000
    O324    O    0.80850   0.31172   0.45630   1.000
    O325    O    0.03293   0.41060   0.45627   1.000
    O326    O    0.07051   0.32468   0.46505   1.000
    O327    O    0.32125   0.50962   0.45328   1.000
    O328    O    0.24783   0.49755   0.45857   1.000
    O329    O    0.79446   0.38817   0.46085   1.000
    O330    O    0.11689   0.22876   0.47036   1.000
    O331    O    0.16332   0.12961   0.48001   1.000
    O332    O    0.31775   0.58151   0.47744   1.000
    O333    O    0.75876   0.18765   0.49633   1.000
    O334    O    0.30313   0.67027   0.48378   1.000
    O335    O    0.28906   0.75620   0.48896   1.000
    O336    O    0.73198   0.35910   0.50521   1.000
    O337    O    0.84445   0.91782   0.50127   1.000
    O338    O    0.91331   0.72400   0.51521   1.000
    O339    O    0.05747   0.26569   0.51875   1.000
    O340    O    0.26987   0.83341   0.49803   1.000
    O341    O    0.23878   0.63060   0.52876   1.000
    O342    O    0.21952   0.03767   0.50295   1.000
    O343    O    0.12633   0.07187   0.53269   1.000
    O344    O    0.21200   0.80205   0.53765   1.000
    O345    O    0.70088   0.15629   0.53594   1.000
    O346    O    0.68170   0.23351   0.54500   1.000
    O347    O    0.75126   0.95202   0.53100   1.000
    O348    O    0.80746   0.86008   0.55395   1.000
    O349    O    0.66763   0.31943   0.55019   1.000
    O350    O    0.65301   0.40819   0.55650   1.000
    O351    O    0.85389   0.76093   0.56360   1.000
    O352    O    0.90027   0.66501   0.56892   1.000
    O353    O    0.07844   0.00256   0.58849   1.000
    O354    O    0.17631   0.60152   0.57313   1.000
    O355    O    0.16226   0.67797   0.57767   1.000
    O356    O    0.61458   0.27625   0.58808   1.000
    O357    O    0.93785   0.57909   0.57771   1.000
    O358    O    0.72293   0.49215   0.57541   1.000
    O359    O    0.14955   0.76350   0.58137   1.000
    O360    O    0.12110   0.87039   0.59325   1.000
    O361    O    0.64951   0.48008   0.58068   1.000
    O362    O    0.56300   0.47377   0.59038   1.000
    O363    O    0.78804   0.79798   0.62152   1.000
    O364    O    0.64673   0.54834   0.60456   1.000
    O365    O    0.88169   0.60569   0.63157   1.000
    O366    O    0.09653   0.72547   0.61965   1.000
    O367    O    0.48016   0.47543   0.60176   1.000
    O368    O    0.47642   0.53627   0.62330   1.000
    O369    O    0.98590   0.95871   0.62643   1.000
    O370    O    0.08205   0.91624   0.67469   1.000
    O371    O    0.63626   0.61139   0.62838   1.000
    O372    O    0.55964   0.60896   0.63755   1.000
    O373    O    0.87359   0.94927   0.65955   1.000
    O374    O    0.47583   0.60320   0.64658   1.000
    O375    O    0.40299   0.59548   0.65325   1.000
    O376    O    0.46137   0.68561   0.68570   1.000
    O377    O    0.72058   0.83912   0.67976   1.000
    O378    O    0.77084   0.73800   0.68510   1.000
    O379    O    0.81811   0.64163   0.68983   1.000
    O380    O    0.86095   0.55801   0.69015   1.000
    O381    O    0.52856   0.82767   0.69503   1.000
    O382    O    0.48698   0.76793   0.69717   1.000
    O383    O    0.78957   0.93456   0.69362   1.000
    O384    O    0.88059   0.87153   0.70286   1.000
    O385    O    0.70437   0.91968   0.69991   1.000
    O386    O    0.62231   0.90488   0.70849   1.000
    O387    O    0.69487   0.99687   0.71437   1.000
    O388    O    0.34396   0.76268   0.71374   1.000
    O389    O    0.22155   0.80387   0.73112   1.000
    O390    O    0.75697   0.67214   0.75177   1.000
    O391    O    0.53294   0.89293   0.71771   1.000
    O392    O    0.45155   0.87431   0.73494   1.000
    O393    O    0.53135   0.96657   0.73306   1.000
    O394    O    0.40997   0.81457   0.73708   1.000
    O395    O    0.43201   0.70219   0.77440   1.000
    O396    O    0.88463   0.78380   0.77546   1.000
    O397    O    0.68207   0.06595   0.72678   1.000
    O398    O    0.60427   0.05838   0.73733   1.000
    O399    O    0.13119   0.86142   0.74284   1.000
    O400    O    0.52281   0.04288   0.74743   1.000
    O401    O    0.45425   0.02243   0.75489   1.000
    O402    O    0.51896   0.11235   0.75837   1.000
    O403    O    0.16920   0.81333   0.79855   1.000
    O404    O    0.38211   0.36528   0.79248   1.000
    O405    O    0.22409   0.45504   0.79529   1.000
    O406    O    0.05034   0.61071   0.81418   1.000
    O407    O    0.71151   0.62408   0.80766   1.000
    O408    O    0.73278   0.68168   0.81914   1.000
    O409    O    0.30540   0.43481   0.80305   1.000
    O410    O    0.39201   0.41963   0.81335   1.000
    O411    O    0.22167   0.51475   0.81705   1.000
    O412    O    0.64902   0.56895   0.87590   1.000
    O413    O    0.46656   0.41241   0.82406   1.000
    O414    O    0.39628   0.48511   0.83615   1.000
    O415    O    0.44323   0.61458   0.84720   1.000
    O416    O    0.79676   0.72307   0.83620   1.000
    O417    O    0.93467   0.71741   0.85246   1.000
    O418    O    0.80951   0.79996   0.86433   1.000
    O419    O    0.13273   0.59205   0.83194   1.000
    O420    O    0.22446   0.58034   0.84156   1.000
    O421    O    0.04029   0.65718   0.85442   1.000
    O422    O    0.09863   0.92742   0.86001   1.000
    O423    O    0.13850   0.84380   0.86041   1.000
    O424    O    0.18234   0.74742   0.86511   1.000
    O425    O    0.31246   0.56588   0.85036   1.000
    O426    O    0.40615   0.55136   0.85662   1.000
    O427    O    0.22783   0.64629   0.87039   1.000
    O428    O    0.47066   0.53692   0.89063   1.000
    O429    O    0.10839   0.87966   0.91863   1.000
    O430    O    0.62850   0.89124   0.89733   1.000
    O431    O    0.19569   0.68736   0.92870   1.000
    O432    O    0.70291   0.88253   0.90389   1.000
    O433    O    0.78405   0.87563   0.91280   1.000
    O434    O    0.41825   0.76001   0.93131   1.000
    O435    O    0.61384   0.94983   0.92746   1.000
    O436    O    0.55315   0.52686   0.92397   1.000
    O437    O    0.85448   0.87219   0.92187   1.000
    O438    O    0.77871   0.93544   0.94598   1.000
    O439    O    0.56119   0.61445   0.95734   1.000
    O440    O    0.64639   0.47867   0.96224   1.000
    O441    O    0.46398   0.20197   0.96334   1.000
    O442    O    0.53790   0.00741   0.94928   1.000
    O443    O    0.60837   0.00796   0.96057   1.000
    O444    O    0.47133   0.72151   0.96940   1.000
    O445    O    0.39531   0.80726   0.97328   1.000
    O446    O    0.08459   0.90617   0.97245   1.000
    O447    O    0.69210   0.00047   0.97018   1.000
    O448    O    0.77282   0.98733   0.97531   1.000
    O449    O    0.32880   0.88392   0.97802   1.000
loop_
    _geom_bond_atom_site_label_1
    _geom_bond_atom_site_label_2
    _geom_bond_distance
    _geom_bond_site_symmetry_2
    _ccdc_geom_bond_type
    C82    O208      0.65752      .   S
    C83    O208      0.65752      .   S
    C82    O209      0.67328  1_554   S
    C87    O209      0.67328      .   S
    C82    O210      0.66428  1_554   S
    C81    O210      0.66428      .   S
    C80    O211      0.51516      .   S
    C14    O211      0.51516      .   S
    C80    O212      0.72644      .   S
    C168   O212      0.72644      .   S
    C80    O213      0.59053  1_554   S
    C81    O213      0.59053      .   S
    C198   O214      0.58828      .   S
    C131   O214      0.58828      .   S
    C128   O215      0.33472      .   S
    C41    O215      0.33472      .   S
    C128   O216      0.68389  1_554   S
    C127   O216      0.68389      .   S
    C128   O217      0.68064  1_554   S
    C129   O217      0.68064      .   S
    C131   O218      0.69915      .   S
    C199   O218      0.69915      .   S
    C131   O219      0.69687  1_554   S
    C129   O219      0.69687      .   S
    C13    O220      0.31547      .   S
    C76    O220      0.31547      .   S
    C132   O221      0.54613      .   S
    C42    O221      0.54613      .   S
    C132   O222      0.69380      .   S
    C133   O222      0.69380      .   S
    C132   O223      0.53568  1_554   S
    C172   O223      0.53568      .   S
    C79    O224      0.62088      .   S
    C182   O224      0.62088      .   S
    C79    O225      0.75696      .   S
    C77    O225      0.75696      .   S
    C79    O226      0.53883      .   S
    C183   O226      0.53883  1_556   S
    C134   O227      0.70101      .   S
    C133   O227      0.70101      .   S
    C134   O228      0.73927      .   S
    C139   O228      0.73927      .   S
    C134   O229      0.55612      .   S
    C135   O229      0.55612  1_556   S
    C76    O230      0.70099      .   S
    C77    O230      0.70099      .   S
    C76    O231      0.69566      .   S
    C75    O231      0.69566      .   S
    C199   O232      0.97461      .   S
    C0     O232      0.97461      .   S
    C83    O233      0.54730      .   S
    C16    O233      0.54730      .   S
    C83    O234      0.69776      .   S
    C84    O234      0.69776      .   S
    C133   O235      0.54532      .   S
    C43    O235      0.54532      .   S
    C12    O236      0.54571      .   S
    C75    O236      0.54571      .   S
    C47    O237      0.53355  1_565   S
    C138   O237      0.53355      .   S
    C168   O238      0.67552      .   S
    C84    O238      0.67552      .   S
    C168   O239      1.02806      .   S
    C0     O239      1.02806      .   S
    C139   O240      0.67555      .   S
    C138   O240      0.67555  1_545   S
    C139   O241      0.68813      .   S
    C140   O241      0.68813      .   S
    C77    O242      0.70754      .   S
    C78    O242      0.70754      .   S
    C138   O243      0.69442      .   S
    C137   O243      0.69442      .   S
    C75    O244      0.69628      .   S
    C74    O244      0.69628      .   S
    C84    O245      0.54530      .   S
    C17    O245      0.54530      .   S
    C48    O246      0.51966      .   S
    C140   O246      0.51966      .   S
    C140   O247      0.69414  1_565   S
    C141   O247      0.69414      .   S
    C0     O248      1.02280      .   S
    C176   O248      1.02280      .   S
    C0     O249      1.00489      .   S
    C187   O249      1.00489      .   S
    C137   O250      0.54474      .   S
    C46    O250      0.54474      .   S
    C137   O251      0.67549      .   S
    C173   O251      0.67549      .   S
    C176   O252      0.63485      .   S
    C64    O252      0.63485      .   S
    C141   O253      0.67376      .   S
    C173   O253      0.67376      .   S
    C141   O254      0.54517      .   S
    C49    O254      0.54517      .   S
    C173   O255      1.05147      .   S
    C3     O255      1.05147      .   S
    C78    O256      0.75102      .   S
    C70    O256      0.75102      .   S
    C78    O257      0.70703      .   S
    C73    O257      0.70703      .   S
    C74    O258      0.70062      .   S
    C73    O258      0.70062      .   S
    C74    O259      0.54452      .   S
    C11    O259      0.54452      .   S
    C181   O260      0.64097      .   S
    C71    O260      0.64097      .   S
    C181   O261      1.12490  1_655   S
    C3     O261      1.12490      .   S
    C64    O262      0.74897      .   S
    C65    O262      0.74897      .   S
    C64    O263      0.63794      .   S
    C177   O263      0.63794      .   S
    C70    O264      0.70753      .   S
    C65    O264      0.70753      .   S
    C70    O265      0.70690      .   S
    C69    O265      0.70690      .   S
    C65    O266      0.69897      .   S
    C66    O266      0.69897      .   S
    C186   O267      1.00027      .   S
    C3     O267      1.00027      .   S
    C186   O268      0.63973      .   S
    C98    O268      0.63973      .   S
    C73    O269      0.75009      .   S
    C72    O269      0.75009      .   S
    C71    O270      0.74979      .   S
    C69    O270      0.74979      .   S
    C71    O271      0.63616      .   S
    C180   O271      0.63616      .   S
    C69    O272      0.70199      .   S
    C68    O272      0.70199      .   S
    C3     O273      1.00756      .   S
    C185   O273      1.00756      .   S
    C177   O274      1.01005      .   S
    C1     O274      1.01005      .   S
    C66    O275      0.54506      .   S
    C8     O275      0.54506      .   S
    C66    O276      0.69643      .   S
    C67    O276      0.69643      .   S
    C187   O277      0.63544      .   S
    C98    O277      0.63544      .   S
    C68    O278      0.69517      .   S
    C67    O278      0.69517      .   S
    C68    O279      0.54472      .   S
    C10    O279      0.54472      .   S
    C67    O280      0.54543      .   S
    C9     O280      0.54543      .   S
    C98    O281      0.75092      .   S
    C99    O281      0.75092      .   S
    C23    O282      0.54544      .   S
    C93    O282      0.54544      .   S
    C24    O283      0.54458      .   S
    C94    O283      0.54458      .   S
    C72    O284      0.63538      .   S
    C179   O284      0.63538      .   S
    C72    O285      0.64030      .   S
    C178   O285      0.64030      .   S
    C188   O286      1.11832      .   S
    C1     O286      1.11832      .   S
    C188   O287      0.63670      .   S
    C97    O287      0.63670      .   S
    C93    O288      0.69515      .   S
    C94    O288      0.69515      .   S
    C93    O289      0.69646      .   S
    C92    O289      0.69646      .   S
    C94    O290      0.65842  1_565   S
    C95    O290      0.65842      .   S
    C179   O291      1.00462      .   S
    C2     O291      1.00462      .   S
    C22    O292      0.54508      .   S
    C92    O292      0.54508      .   S
    C92    O293      0.65479      .   S
    C91    O293      0.65479  1_545   S
    C185   O294      0.63843      .   S
    C90    O294      0.63843      .   S
    C1     O295      1.00066      .   S
    C178   O295      1.00066      .   S
    C1     O296      1.04851      .   S
    C189   O296      1.04851      .   S
    C1     O297      1.05211      .   S
    C175   O297      1.05211      .   S
    C95    O298      0.74976      .   S
    C97    O298      0.74976      .   S
    C95    O299      0.70699      .   S
    C96    O299      0.70699      .   S
    C97    O300      0.64064      .   S
    C189   O300      0.64064      .   S
    C25    O301      0.54466      .   S
    C100   O301      0.54466      .   S
    C99    O302      0.70061      .   S
    C100   O302      0.70061      .   S
    C99    O303      0.70713      .   S
    C104   O303      0.70713      .   S
    C91    O304      0.70756      .   S
    C96    O304      0.70756      .   S
    C91    O305      0.74912      .   S
    C90    O305      0.74912      .   S
    C96    O306      0.75091      .   S
    C104   O306      0.75091      .   S
    C90    O307      0.63472      .   S
    C184   O307      0.63472      .   S
    C100   O308      0.69619      .   S
    C101   O308      0.69619      .   S
    C63    O309      0.54490      .   S
    C167   O309      0.54490      .   S
    C104   O310      0.70748      .   S
    C103   O310      0.70748      .   S
    C175   O311      0.67377      .   S
    C167   O311      0.67377      .   S
    C175   O312      0.67557      .   S
    C163   O312      0.67557      .   S
    C31    O313      0.54443      .   S
    C110   O313      0.54443      .   S
    C167   O314      0.69437      .   S
    C166   O314      0.69437      .   S
    C184   O315      1.10887  1_455   S
    C2     O315      1.10887      .   S
    C60    O316      0.54478      .   S
    C163   O316      0.54478      .   S
    C163   O317      0.69448      .   S
    C164   O317      0.69448      .   S
    C2     O318      1.02845      .   S
    C170   O318      1.02845      .   S
    C2     O319      0.93922  1_545   S
    C207   O319      0.93922      .   S
    C57    O320      0.54460      .   S
    C159   O320      0.54460      .   S
    C166   O321      0.54430      .   S
    C62    O321      0.54430      .   S
    C166   O322      0.70162      .   S
    C165   O322      0.70162      .   S
    C110   O323      0.67575      .   S
    C170   O323      0.67575      .   S
    C110   O324      0.69457      .   S
    C109   O324      0.69457      .   S
    C101   O325      0.54581      .   S
    C26    O325      0.54581      .   S
    C101   O326      0.69567      .   S
    C102   O326      0.69567      .   S
    C164   O327      0.70220      .   S
    C165   O327      0.70220      .   S
    C164   O328      0.54467      .   S
    C61    O328      0.54467      .   S
    C30    O329      0.54438      .   S
    C109   O329      0.54438      .   S
    C103   O330      0.70096      .   S
    C102   O330      0.70096      .   S
    C103   O331      0.75687      .   S
    C105   O331      0.75687      .   S
    C165   O332      0.73958      .   S
    C160   O332      0.73958      .   S
    C170   O333      0.67624      .   S
    C106   O333      0.67624      .   S
    C159   O334      0.70139      .   S
    C160   O334      0.70139      .   S
    C159   O335      0.69419      .   S
    C158   O335      0.69419      .   S
    C109   O336      0.70115      .   S
    C108   O336      0.70115      .   S
    C207   O337      0.65208      .   S
    C157   O337      0.65208      .   S
    C55    O338      0.54450      .   S
    C154   O338      0.54450      .   S
    C102   O339      0.54472      .   S
    C27    O339      0.54472      .   S
    C56    O340      0.54594      .   S
    C158   O340      0.54594      .   S
    C160   O341      0.70117      .   S
    C161   O341      0.70117      .   S
    C190   O342      0.62085      .   S
    C105   O342      0.62085      .   S
    C105   O343      0.65207      .   S
    C191   O343      0.65207      .   S
    C158   O344      0.67627      .   S
    C174   O344      0.67627      .   S
    C106   O345      0.54593      .   S
    C28    O345      0.54593      .   S
    C106   O346      0.69420      .   S
    C107   O346      0.69420      .   S
    C157   O347      0.62085      .   S
    C206   O347      0.62085      .   S
    C157   O348      0.75689      .   S
    C155   O348      0.75689      .   S
    C108   O349      0.70140      .   S
    C107   O349      0.70140      .   S
    C108   O350      0.73938      .   S
    C113   O350      0.73938      .   S
    C154   O351      0.70109      .   S
    C155   O351      0.70109      .   S
    C154   O352      0.69574      .   S
    C153   O352      0.69574      .   S
    C191   O353      0.93923      .   S
    C6     O353      0.93923  1_565   S
    C161   O354      0.54437      .   S
    C58    O354      0.54437      .   S
    C161   O355      0.69457      .   S
    C162   O355      0.69457      .   S
    C107   O356      0.54462      .   S
    C29    O356      0.54462      .   S
    C54    O357      0.54579      .   S
    C153   O357      0.54579      .   S
    C33    O358      0.54467      .   S
    C112   O358      0.54467      .   S
    C174   O359      0.67575      .   S
    C162   O359      0.67575      .   S
    C174   O360      1.02840      .   S
    C6     O360      1.02840      .   S
    C113   O361      0.70243      .   S
    C112   O361      0.70243      .   S
    C113   O362      0.70166      .   S
    C114   O362      0.70166      .   S
    C155   O363      0.70748      .   S
    C156   O363      0.70748      .   S
    C112   O364      0.69435      .   S
    C111   O364      0.69435      .   S
    C153   O365      0.69604      .   S
    C152   O365      0.69604      .   S
    C162   O366      0.54441      .   S
    C59    O366      0.54441      .   S
    C34    O367      0.54429      .   S
    C114   O367      0.54429      .   S
    C114   O368      0.69434      .   S
    C115   O368      0.69434      .   S
    C6     O369      1.10894  1_455   S
    C200   O369      1.10894      .   S
    C6     O370      1.00470      .   S
    C195   O370      1.00470      .   S
    C111   O371      0.54494      .   S
    C32    O371      0.54494      .   S
    C111   O372      0.67559      .   S
    C171   O372      0.67559      .   S
    C200   O373      0.63470      .   S
    C142   O373      0.63470      .   S
    C115   O374      0.67382      .   S
    C171   O374      0.67382      .   S
    C115   O375      0.54490      .   S
    C35    O375      0.54490      .   S
    C171   O376      1.05176      .   S
    C5     O376      1.05176      .   S
    C156   O377      0.75088      .   S
    C148   O377      0.75088      .   S
    C156   O378      0.70711      .   S
    C151   O378      0.70711      .   S
    C152   O379      0.70069      .   S
    C151   O379      0.70069      .   S
    C152   O380      0.54448      .   S
    C53    O380      0.54448      .   S
    C205   O381      0.64030      .   S
    C149   O381      0.64030      .   S
    C205   O382      1.04858      .   S
    C5     O382      1.04858      .   S
    C142   O383      0.74909      .   S
    C143   O383      0.74909      .   S
    C142   O384      0.63836      .   S
    C201   O384      0.63836      .   S
    C148   O385      0.70756      .   S
    C143   O385      0.70756      .   S
    C148   O386      0.70698      .   S
    C147   O386      0.70698      .   S
    C143   O387      0.65452      .   S
    C144   O387      0.65452  1_545   S
    C194   O388      1.00043      .   S
    C5     O388      1.00043      .   S
    C194   O389      0.64028      .   S
    C124   O389      0.64028      .   S
    C151   O390      0.75031      .   S
    C150   O390      0.75031      .   S
    C149   O391      0.75001      .   S
    C147   O391      0.75001      .   S
    C149   O392      0.63683      .   S
    C204   O392      0.63683      .   S
    C147   O393      0.65842      .   S
    C146   O393      0.65842  1_545   S
    C5     O394      1.11860      .   S
    C204   O394      1.11860      .   S
    C5     O395      1.01007      .   S
    C193   O395      1.01007      .   S
    C201   O396      1.00763      .   S
    C7     O396      1.00763      .   S
    C144   O397      0.54539      .   S
    C50    O397      0.54539      .   S
    C144   O398      0.69645      .   S
    C145   O398      0.69645      .   S
    C195   O399      0.63536      .   S
    C124   O399      0.63536      .   S
    C146   O400      0.69518      .   S
    C145   O400      0.69518      .   S
    C146   O401      0.54459      .   S
    C52    O401      0.54459      .   S
    C145   O402      0.54540      .   S
    C51    O402      0.54540      .   S
    C124   O403      0.75009      .   S
    C125   O403      0.75009      .   S
    C37    O404      0.54543      .   S
    C119   O404      0.54543      .   S
    C38    O405      0.54461      .   S
    C120   O405      0.54461      .   S
    C196   O406      0.63614      .   S
    C123   O406      0.63614      .   S
    C150   O407      0.63535      .   S
    C203   O407      0.63535      .   S
    C150   O408      0.64040      .   S
    C202   O408      0.64040      .   S
    C119   O409      0.69520      .   S
    C120   O409      0.69520      .   S
    C119   O410      0.69634      .   S
    C118   O410      0.69634      .   S
    C120   O411      0.70210      .   S
    C121   O411      0.70210      .   S
    C203   O412      1.00483      .   S
    C4     O412      1.00483      .   S
    C36    O413      0.54509      .   S
    C118   O413      0.54509      .   S
    C118   O414      0.69907      .   S
    C117   O414      0.69907      .   S
    C193   O415      0.63793      .   S
    C116   O415      0.63793      .   S
    C7     O416      1.00012      .   S
    C202   O416      1.00012      .   S
    C7     O417      1.12512      .   S
    C197   O417      1.12512  1_455   S
    C7     O418      1.05174      .   S
    C169   O418      1.05174      .   S
    C121   O419      0.74979      .   S
    C123   O419      0.74979      .   S
    C121   O420      0.70690      .   S
    C122   O420      0.70690      .   S
    C123   O421      0.64092      .   S
    C197   O421      0.64092      .   S
    C39    O422      0.54466      .   S
    C126   O422      0.54466      .   S
    C125   O423      0.70061      .   S
    C126   O423      0.70061      .   S
    C125   O424      0.70675      .   S
    C130   O424      0.70675      .   S
    C117   O425      0.70754      .   S
    C122   O425      0.70754      .   S
    C117   O426      0.74858      .   S
    C116   O426      0.74858      .   S
    C122   O427      0.75053      .   S
    C130   O427      0.75053      .   S
    C116   O428      0.63529      .   S
    C192   O428      0.63529      .   S
    C126   O429      0.69619      .   S
    C127   O429      0.69619      .   S
    C21    O430      0.54497      .   S
    C89    O430      0.54497      .   S
    C130   O431      0.70836      .   S
    C129   O431      0.70836      .   S
    C169   O432      0.67380      .   S
    C89    O432      0.67380      .   S
    C169   O433      0.67549      .   S
    C85    O433      0.67549      .   S
    C45    O434      0.54450      .   S
    C136   O434      0.54450      .   S
    C89    O435      0.69431      .   S
    C88    O435      0.69431      .   S
    C192   O436      1.02273      .   S
    C4     O436      1.02273      .   S
    C18    O437      0.54474      .   S
    C85    O437      0.54474      .   S
    C85    O438      0.69442      .   S
    C86    O438      0.69442      .   S
    C4     O439      1.02811      .   S
    C172   O439      1.02811      .   S
    C4     O440      0.97463      .   S
    C183   O440      0.97463      .   S
    C15    O441      0.54460      .   S
    C81    O441      0.54460      .   S
    C88    O442      0.52028  1_565   S
    C20    O442      0.52028      .   S
    C88    O443      0.68812  1_565   S
    C87    O443      0.68812      .   S
    C136   O444      0.67584      .   S
    C172   O444      0.67584      .   S
    C136   O445      0.69468      .   S
    C135   O445      0.69468      .   S
    C127   O446      0.54577      .   S
    C40    O446      0.54577      .   S
    C86    O447      0.67556  1_565   S
    C87    O447      0.67556      .   S
    C86    O448      0.53354      .   S
    C19    O448      0.53354      .   S
    C44    O449      0.54442      .   S
    C135   O449      0.54442      .   S
