# CIF file generated by openbabel 2.4.90, see http://openbabel.sf.net
data_I
_chemical_name_common ''
_cell_length_a 12.333
_cell_length_b 13.793
_cell_length_c 17.568
_cell_angle_alpha 90.008
_cell_angle_beta 93.554
_cell_angle_gamma 89.971
_space_group_name_H-M_alt 'P 1'
_space_group_name_Hall 'P 1'
loop_
    _symmetry_equiv_pos_as_xyz
    x,y,z
loop_
    _atom_site_label
    _atom_site_type_symbol
    _atom_site_fract_x
    _atom_site_fract_y
    _atom_site_fract_z
    _atom_site_occupancy
    H0      H    0.53114   0.29105   0.70805   1.000
    H1      H    0.53380   0.22680   0.57492   1.000
    H2      H    0.35192   0.47562   0.49170   1.000
    H3      H    0.35018   0.53956   0.62450   1.000
    H4      H    0.23545   0.28748   0.46964   1.000
    H5      H    0.09183   0.31257   0.36443   1.000
    H6      H    0.33699   0.39100   0.21238   1.000
    H7      H    0.48140   0.36322   0.31620   1.000
    H8      H    0.96925   0.79083   0.29186   1.000
    H9      H    0.96661   0.72661   0.42499   1.000
    H10     H    0.14792   0.97559   0.50820   1.000
    H11     H    0.14966   0.03947   0.37549   1.000
    H12     H    0.26461   0.78726   0.53036   1.000
    H13     H    0.40821   0.81237   0.63555   1.000
    H14     H    0.16301   0.89115   0.78755   1.000
    H15     H    0.01862   0.86334   0.68374   1.000
    H16     H    0.46881   0.70898   0.29192   1.000
    H17     H    0.46615   0.77323   0.42506   1.000
    H18     H    0.64804   0.52441   0.50825   1.000
    H19     H    0.64978   0.46047   0.37548   1.000
    H20     H    0.76450   0.71254   0.53034   1.000
    H21     H    0.90812   0.68746   0.63550   1.000
    H22     H    0.66296   0.60903   0.78759   1.000
    H23     H    0.51855   0.63681   0.68378   1.000
    H24     H    0.03071   0.20919   0.70812   1.000
    H25     H    0.03335   0.27341   0.57499   1.000
    H26     H    0.85203   0.02443   0.49171   1.000
    H27     H    0.85029   0.96055   0.62448   1.000
    H28     H    0.73534   0.21277   0.46962   1.000
    H29     H    0.59174   0.18766   0.36442   1.000
    H30     H    0.83695   0.10888   0.21243   1.000
    H31     H    0.98133   0.13668   0.31623   1.000
    C32     C    0.43895   0.41879   0.67507   1.000
    C33     C    0.49159   0.33096   0.66060   1.000
    C34     C    0.49359   0.29503   0.58676   1.000
    C35     C    0.44165   0.34662   0.52630   1.000
    C36     C    0.39015   0.43515   0.53930   1.000
    C37     C    0.38936   0.47059   0.61345   1.000
    C38     C    0.36593   0.32573   0.39865   1.000
    C39     C    0.25693   0.31046   0.41316   1.000
    C40     C    0.17712   0.32476   0.35468   1.000
    C41     C    0.20543   0.35467   0.28214   1.000
    C42     C    0.31540   0.36811   0.26876   1.000
    C43     C    0.39605   0.35314   0.32655   1.000
    C44     C    0.06115   0.91868   0.32489   1.000
    C45     C    0.00871   0.83079   0.33933   1.000
    C46     C    0.00671   0.79488   0.41317   1.000
    C47     C    0.05846   0.84653   0.47365   1.000
    C48     C    0.10981   0.93509   0.46061   1.000
    C49     C    0.11062   0.97051   0.38653   1.000
    C50     C    0.13412   0.82570   0.60131   1.000
    C51     C    0.24311   0.81030   0.58682   1.000
    C52     C    0.32292   0.82465   0.64500   1.000
    C53     C    0.29459   0.85464   0.71782   1.000
    C54     C    0.18462   0.86819   0.73118   1.000
    C55     C    0.10398   0.85318   0.67340   1.000
    C56     C    0.56100   0.58123   0.32491   1.000
    C57     C    0.50838   0.66907   0.33938   1.000
    C58     C    0.50636   0.70498   0.41322   1.000
    C59     C    0.55831   0.65341   0.47368   1.000
    C60     C    0.60979   0.56487   0.46061   1.000
    C61     C    0.61061   0.52944   0.38653   1.000
    C62     C    0.63403   0.67428   0.60132   1.000
    C63     C    0.74302   0.68959   0.58682   1.000
    C64     C    0.82284   0.67523   0.64529   1.000
    C65     C    0.79452   0.64538   0.71784   1.000
    C66     C    0.68456   0.63188   0.73120   1.000
    C67     C    0.60390   0.64690   0.67343   1.000
    C68     C    0.93880   0.08135   0.67500   1.000
    C69     C    0.99128   0.16923   0.66065   1.000
    C70     C    0.99328   0.20514   0.58681   1.000
    C71     C    0.94149   0.15349   0.52632   1.000
    C72     C    0.89014   0.06493   0.53937   1.000
    C73     C    0.88933   0.02952   0.61345   1.000
    C74     C    0.86584   0.17433   0.39866   1.000
    C75     C    0.75684   0.18971   0.41316   1.000
    C76     C    0.67703   0.17540   0.35468   1.000
    C77     C    0.70536   0.14538   0.28216   1.000
    C78     C    0.81534   0.13186   0.26879   1.000
    C79     C    0.89598   0.14683   0.32650   1.000
    O80     O    0.44921   0.30816   0.45420   1.000
    O81     O    0.05084   0.80813   0.54568   1.000
    O82     O    0.55074   0.69187   0.54570   1.000
    O83     O    0.94911   0.19189   0.45429   1.000
loop_
    _geom_bond_atom_site_label_1
    _geom_bond_atom_site_label_2
    _geom_bond_distance
    _geom_bond_site_symmetry_2
    _ccdc_geom_bond_type
    H6     C42       1.08838      .   S
    H30    C78       1.08831      .   S
    C42    C41       1.40313      .   S
    C42    C43       1.39189      .   S
    C78    C77       1.40317      .   S
    C78    C79       1.39096      .   S
    C41    C40       1.40413      .   S
    C77    C76       1.40413      .   S
    H8     C45       1.08900  1_655   S
    H16    C57       1.08892      .   S
    H7     C43       1.08826      .   S
    H31    C79       1.08797      .   S
    C44    C45       1.40475      .   S
    C44    C49       1.40506      .   S
    C56    C57       1.40476      .   S
    C56    C61       1.40503      .   S
    C79    C74       1.39547      .   S
    C43    C38       1.39428      .   S
    C45    C46       1.39027      .   S
    C57    C58       1.39020      .   S
    C40    H5        1.08929      .   S
    C40    C39       1.39206      .   S
    C76    H29       1.08927      .   S
    C76    C75       1.39210      .   S
    H19    C61       1.08957      .   S
    H11    C49       1.08923  1_545   S
    C61    C60       1.39072      .   S
    C49    C48       1.39077      .   S
    C38    C39       1.39966      .   S
    C38    O80       1.39349      .   S
    C74    C75       1.39970      .   S
    C74    O83       1.39438      .   S
    C39    H4        1.08989      .   S
    C75    H28       1.08981      .   S
    C46    H9        1.08985  1_455   S
    C46    C47       1.39999      .   S
    C58    H17       1.08966      .   S
    C58    C59       1.40005      .   S
    O80    C35       1.38166      .   S
    O83    C71       1.38045      .   S
    C60    C59       1.40159      .   S
    C60    H18       1.08874      .   S
    C48    C47       1.40156      .   S
    C48    H10       1.08785      .   S
    C47    O81       1.38045      .   S
    C59    O82       1.38036      .   S
    H2     C36       1.08820      .   S
    H26    C72       1.08876      .   S
    C35    C36       1.40135      .   S
    C35    C34       1.40005      .   S
    C71    C72       1.40159      .   S
    C71    C70       1.40029      .   S
    H20    C63       1.08982      .   S
    H12    C51       1.08976      .   S
    C36    C37       1.39190      .   S
    C72    C73       1.39078      .   S
    O81    C50       1.39443      .   S
    O82    C62       1.39436      .   S
    H1     C34       1.08965      .   S
    H25    C70       1.08966  1_455   S
    C34    C33       1.39023      .   S
    C70    C69       1.39028      .   S
    C63    C62       1.39966      .   S
    C63    C64       1.39210      .   S
    C51    C50       1.39968      .   S
    C51    C52       1.38855      .   S
    C50    C55       1.39425      .   S
    C62    C67       1.39430      .   S
    C73    H27       1.08920  1_545   S
    C73    C68       1.40388      .   S
    C37    H3        1.08958      .   S
    C37    C32       1.40501      .   S
    H21    C64       1.08948      .   S
    H13    C52       1.08819      .   S
    C52    C53       1.40885      .   S
    C64    C65       1.40406      .   S
    C33    C32       1.40476      .   S
    C33    H0        1.08877      .   S
    C69    C68       1.40462      .   S
    C69    H24       1.08883  1_655   S
    C55    H15       1.08826      .   S
    C55    C54       1.39189      .   S
    C67    H23       1.08826      .   S
    C67    C66       1.39181      .   S
    C53    C54       1.40314      .   S
    C65    C66       1.40311      .   S
    C54    H14       1.08838      .   S
    C66    H22       1.08839      .   S
