# CIF file generated by openbabel 2.4.90, see http://openbabel.sf.net
data_I
_chemical_name_common ''
_cell_length_a 12.333
_cell_length_b 13.793
_cell_length_c 17.568
_cell_angle_alpha 90.008
_cell_angle_beta 93.554
_cell_angle_gamma 89.971
_space_group_name_H-M_alt 'P 1'
_space_group_name_Hall 'P 1'
loop_
    _symmetry_equiv_pos_as_xyz
    x,y,z
loop_
    _atom_site_label
    _atom_site_type_symbol
    _atom_site_fract_x
    _atom_site_fract_y
    _atom_site_fract_z
    _atom_site_occupancy
    Zn0     Zn   0.46231   0.90504   0.92621   1.000
    Zn1     Zn   0.06511   0.97500   0.09653   1.000
    Zn2     Zn   0.03769   0.40500   0.07374   1.000
    Zn3     Zn   0.56508   0.52505   0.09650   1.000
    Zn4     Zn   0.53765   0.09498   0.07376   1.000
    Zn5     Zn   0.93484   0.02503   0.90344   1.000
    Zn6     Zn   0.96227   0.59502   0.92620   1.000
    Zn7     Zn   0.43487   0.47498   0.90345   1.000
