# CIF file generated by openbabel 2.4.90, see http://openbabel.sf.net
data_I
_chemical_name_common ''
_cell_length_a 12.333
_cell_length_b 13.793
_cell_length_c 17.568
_cell_angle_alpha 90.008
_cell_angle_beta 93.554
_cell_angle_gamma 89.971
_space_group_name_H-M_alt 'P 1'
_space_group_name_Hall 'P 1'
loop_
    _symmetry_equiv_pos_as_xyz
    x,y,z
loop_
    _atom_site_label
    _atom_site_type_symbol
    _atom_site_fract_x
    _atom_site_fract_y
    _atom_site_fract_z
    _atom_site_occupancy
    Zn0     Zn   0.46231   0.90504   0.92621   1.000
    Zn1     Zn   0.06511   0.97500   0.09653   1.000
    Zn2     Zn   0.03769   0.40500   0.07374   1.000
    Zn3     Zn   0.56508   0.52505   0.09650   1.000
    Zn4     Zn   0.53765   0.09498   0.07376   1.000
    Zn5     Zn   0.93484   0.02503   0.90344   1.000
    Zn6     Zn   0.96227   0.59502   0.92620   1.000
    H7      H    0.46556   0.69668   0.84206   1.000
    H8      H    0.27735   0.38919   0.02326   1.000
    H9      H    0.25944   0.57971   0.79541   1.000
    H10     H    0.12029   0.61218   0.80143   1.000
    H11     H    0.52751   0.72922   0.13791   1.000
    H12     H    0.50149   0.83850   0.09163   1.000
    H13     H    0.03433   0.19667   0.15795   1.000
    H14     H    0.22263   0.88954   0.97657   1.000
    H15     H    0.24052   0.07958   0.20471   1.000
    Zn16    Zn   0.43487   0.47498   0.90345   1.000
    H17     H    0.37965   0.11207   0.19868   1.000
    H18     H    0.97227   0.22917   0.86211   1.000
    H19     H    0.99836   0.33842   0.90839   1.000
    H20     H    0.53439   0.30335   0.15792   1.000
    H21     H    0.72260   0.61084   0.97671   1.000
    H22     H    0.74051   0.42031   0.20457   1.000
    H23     H    0.87967   0.38784   0.19850   1.000
    H24     H    0.47244   0.27081   0.86207   1.000
    H25     H    0.49846   0.16153   0.90830   1.000
    H26     H    0.96562   0.80335   0.84203   1.000
    H27     H    0.77732   0.11049   0.02340   1.000
    H28     H    0.75943   0.92044   0.79526   1.000
    H29     H    0.62031   0.88795   0.80130   1.000
    H30     H    0.02769   0.77085   0.13787   1.000
    H31     H    0.00160   0.66160   0.09159   1.000
    C32     C    0.48174   0.68883   0.90313   1.000
    C33     C    0.51109   0.72121   0.02252   1.000
    C34     C    0.18731   0.52952   0.88814   1.000
    C35     C    0.23126   0.43478   0.98270   1.000
    C36     C    0.43418   0.45676   0.75386   1.000
    C37     C    0.11912   0.37040   0.21991   1.000
    C38     C    0.01813   0.18882   0.09688   1.000
    C39     C    0.98872   0.22118   0.97749   1.000
    C40     C    0.31266   0.02954   0.11189   1.000
    C41     C    0.26872   0.93504   0.01720   1.000
    C42     C    0.06585   0.95667   0.24611   1.000
    C43     C    0.38089   0.87039   0.78005   1.000
    C44     C    0.51821   0.31120   0.09685   1.000
    C45     C    0.48886   0.27881   0.97746   1.000
    C46     C    0.81265   0.47050   0.11183   1.000
    C47     C    0.76869   0.56524   0.01728   1.000
    C48     C    0.56576   0.54326   0.24611   1.000
    C49     C    0.88084   0.62963   0.78007   1.000
    C50     C    0.98183   0.81121   0.90310   1.000
    C51     C    0.01124   0.77885   0.02249   1.000
    C52     C    0.68730   0.97049   0.88808   1.000
    C53     C    0.73124   0.06498   0.98277   1.000
    C54     C    0.93410   0.04335   0.75387   1.000
    C55     C    0.61906   0.12963   0.21993   1.000
    N56     N    0.27310   0.47852   0.92190   1.000
    N57     N    0.09683   0.51561   0.92687   1.000
    N58     N    0.12711   0.45471   0.98822   1.000
    N59     N    0.19272   0.58766   0.82708   1.000
    N60     N    0.51220   0.62404   0.01597   1.000
    N61     N    0.49249   0.76417   0.95278   1.000
    N62     N    0.49388   0.60409   0.93828   1.000
    N63     N    0.53182   0.76995   0.08929   1.000
    N64     N    0.22688   0.97866   0.07807   1.000
    N65     N    0.40313   0.01567   0.07310   1.000
    N66     N    0.37285   0.95495   0.01169   1.000
    N67     N    0.30723   0.08754   0.17305   1.000
    N68     N    0.98756   0.12401   0.98404   1.000
    N69     N    0.00740   0.26416   0.04723   1.000
    N70     N    0.00594   0.10408   0.06173   1.000
    N71     N    0.96798   0.26992   0.91073   1.000
    N72     N    0.72686   0.52150   0.07807   1.000
    N73     N    0.90312   0.48442   0.07310   1.000
    N74     N    0.87284   0.54531   0.01176   1.000
    N75     N    0.80723   0.41236   0.17290   1.000
    N76     N    0.48775   0.37599   0.98400   1.000
    N77     N    0.50746   0.23585   0.04720   1.000
    N78     N    0.50608   0.39593   0.06170   1.000
    N79     N    0.46813   0.23008   0.91069   1.000
    N80     N    0.77307   0.02136   0.92190   1.000
    N81     N    0.59682   0.98435   0.92685   1.000
    N82     N    0.62711   0.04507   0.98829   1.000
    N83     N    0.69272   0.91248   0.82693   1.000
    N84     N    0.01239   0.87601   0.01594   1.000
    N85     N    0.99255   0.73587   0.95275   1.000
    N86     N    0.99401   0.89594   0.93825   1.000
    N87     N    0.03198   0.73010   0.08920   1.000
    O88     O    0.02168   0.34994   0.22983   1.000
    O89     O    0.15231   0.40403   0.15607   1.000
    O90     O    0.39822   0.54066   0.76630   1.000
    O91     O    0.46817   0.40041   0.81008   1.000
    O92     O    0.47835   0.84994   0.77010   1.000
    O93     O    0.34766   0.90406   0.84389   1.000
    O94     O    0.10175   0.04053   0.23362   1.000
    O95     O    0.03185   0.90038   0.18987   1.000
    O96     O    0.97827   0.65008   0.77014   1.000
    O97     O    0.84764   0.59598   0.84391   1.000
    O98     O    0.60174   0.45937   0.23360   1.000
    O99     O    0.53179   0.59962   0.18900   1.000
    O100    O    0.52160   0.15008   0.22984   1.000
    O101    O    0.65229   0.09597   0.15608   1.000
    O102    O    0.89821   0.95949   0.76635   1.000
    O103    O    0.96810   0.09965   0.81011   1.000
loop_
    _geom_bond_atom_site_label_1
    _geom_bond_atom_site_label_2
    _geom_bond_distance
    _geom_bond_site_symmetry_2
    _ccdc_geom_bond_type
    N66    C41       1.32282      .   S
    N66    N65       1.39817  1_565   S
    N66    Zn0       2.03733  1_554   S
    N74    C47       1.32285      .   S
    N74    N73       1.39866      .   S
    N74    Zn6       2.03775  1_554   S
    N84    C51       1.34536      .   S
    N84    Zn1       2.04388      .   S
    N84    N86       1.39696  1_454   S
    N60    C33       1.34537      .   S
    N60    Zn3       2.04362      .   S
    N60    N62       1.39691  1_554   S
    C41    N64       1.35638      .   S
    C41    H14       1.08458  1_554   S
    C47    N72       1.35636      .   S
    C47    H21       1.08450  1_554   S
    C51    N87       1.36155      .   S
    C51    N85       1.36769  1_454   S
    C33    N63       1.36234      .   S
    C33    N61       1.36751  1_554   S
    H8     C35       1.08439  1_554   S
    H27    C53       1.08459  1_554   S
    N77    Zn4       2.02716      .   S
    N77    C44       1.35794      .   S
    N77    C45       1.36751  1_554   S
    N69    Zn2       2.02714      .   S
    N69    C38       1.35792      .   S
    N69    C39       1.36767  1_454   S
    N78    Zn3       2.00517      .   S
    N78    C44       1.32603      .   S
    N78    N76       1.39708  1_554   S
    N70    Zn1       2.00496  1_545   S
    N70    C38       1.32607      .   S
    N70    N68       1.39695  1_454   S
    N73    Zn2       1.98742  1_655   S
    N73    C46       1.35621      .   S
    N65    Zn4       1.98712      .   S
    N65    C40       1.35647      .   S
    Zn2    O89       1.95888      .   S
    Zn2    N58       2.03719  1_554   S
    Zn4    O101      1.95893      .   S
    Zn4    N82       2.03720  1_554   S
    N64    Zn1       2.04169      .   S
    N64    C40       1.37377  1_565   S
    N72    Zn3       2.04150      .   S
    N72    C46       1.37393      .   S
    N87    H31       1.01844      .   S
    N87    H30       1.02727      .   S
    N63    H12       1.01838      .   S
    N63    H11       1.02656      .   S
    Zn3    O99       1.98723      .   S
    Zn1    O95       2.00021      .   S
    C44    H20       1.08447      .   S
    C38    H13       1.08451      .   S
    C46    N75       1.34451      .   S
    C40    N67       1.34447      .   S
    O89    C37       1.30308      .   S
    O101   C55       1.30326      .   S
    N75    H23       1.03180      .   S
    N75    H22       1.02731      .   S
    N67    H17       1.03208      .   S
    N67    H15       1.02727      .   S
    O99    C48       1.31686      .   S
    O95    C42       1.30525      .   S
    C37    O88       1.25707      .   S
    C55    O100      1.25708      .   S
    O98    C48       1.26319      .   S
    O94    C42       1.26282  1_545   S
    C36    O90       1.26294      .   S
    C36    O91       1.30531      .   S
    C54    O102      1.26278  1_545   S
    C54    O103      1.30525      .   S
    O92    C43       1.25719      .   S
    O96    C49       1.25708      .   S
    C43    O93       1.30313      .   S
    C49    O97       1.30314      .   S
    H28    N83       1.02736      .   S
    H9     N59       1.02732      .   S
    H29    N83       1.03208      .   S
    H10    N59       1.03214      .   S
    O91    Zn16      1.99994      .   S
    O103   Zn5       2.00005      .   S
    N83    C52       1.34433      .   S
    N59    C34       1.34436      .   S
    H26    C50       1.08451      .   S
    H7     C32       1.08447      .   S
    O93    Zn0       1.95892      .   S
    O97    Zn6       1.95838      .   S
    H24    N79       1.02656      .   S
    H18    N71       1.02654      .   S
    C52    N80       1.37377  1_565   S
    C52    N81       1.35628      .   S
    C34    N56       1.37392      .   S
    C34    N57       1.35621      .   S
    C50    N86       1.32608      .   S
    C50    N85       1.35794      .   S
    C32    N62       1.32604      .   S
    C32    N61       1.35793      .   S
    Zn5    N80       2.04168      .   S
    Zn5    N86       2.00501  1_545   S
    Zn5    N68       2.04399      .   S
    Zn16   N56       2.04159      .   S
    Zn16   N62       2.00532      .   S
    Zn16   N76       2.04385      .   S
    H25    N79       1.01843      .   S
    H19    N71       1.01839      .   S
    N79    C45       1.36234      .   S
    N71    C39       1.36229      .   S
    N80    C53       1.35638      .   S
    N56    C35       1.35650      .   S
    Zn6    N57       1.98741  1_655   S
    Zn6    N85       2.02727      .   S
    Zn0    N81       1.98714      .   S
    Zn0    N61       2.02720      .   S
    N81    N82       1.39856  1_565   S
    N57    N58       1.39880      .   S
    C45    N76       1.34537      .   S
    C39    N68       1.34537      .   S
    C35    N58       1.32285      .   S
    C53    N82       1.32283      .   S
