# CIF file generated by openbabel 2.4.90, see http://openbabel.sf.net
data_I
_chemical_name_common ''
_cell_length_a 12.333
_cell_length_b 13.793
_cell_length_c 17.568
_cell_angle_alpha 90.008
_cell_angle_beta 93.554
_cell_angle_gamma 89.971
_space_group_name_H-M_alt 'P 1'
_space_group_name_Hall 'P 1'
loop_
    _symmetry_equiv_pos_as_xyz
    x,y,z
loop_
    _atom_site_label
    _atom_site_type_symbol
    _atom_site_fract_x
    _atom_site_fract_y
    _atom_site_fract_z
    _atom_site_occupancy
    C0      C    0.43418   0.45676   0.75386   1.000
    C1      C    0.11912   0.37040   0.21991   1.000
    C2      C    0.06585   0.95667   0.24611   1.000
    C3      C    0.38089   0.87039   0.78005   1.000
    C4      C    0.56576   0.54326   0.24611   1.000
    C5      C    0.88084   0.62963   0.78007   1.000
    C6      C    0.93410   0.04335   0.75387   1.000
    C7      C    0.61906   0.12963   0.21993   1.000
