# CIF file generated by openbabel 2.4.90, see http://openbabel.sf.net
data_I
_chemical_name_common ''
_cell_length_a 20.652
_cell_length_b 13.157
_cell_length_c 17.994
_cell_angle_alpha 79.403
_cell_angle_beta 86.853
_cell_angle_gamma 78.876
_space_group_name_H-M_alt 'P 1'
_space_group_name_Hall 'P 1'
loop_
    _symmetry_equiv_pos_as_xyz
    x,y,z
loop_
    _atom_site_label
    _atom_site_type_symbol
    _atom_site_fract_x
    _atom_site_fract_y
    _atom_site_fract_z
    _atom_site_occupancy
    Cd0     Cd   0.96680   0.91203   0.79877   1.000
    Cd1     Cd   0.03318   0.08797   0.20123   1.000
    Cd2     Cd   0.53317   0.08798   0.20120   1.000
    Cd3     Cd   0.25000   0.50000   0.50000   1.000
    Cd4     Cd   0.74999   0.50000   0.50000   1.000
    Cd5     Cd   0.46681   0.91203   0.79877   1.000
