# CIF file generated by openbabel 2.4.90, see http://openbabel.sf.net
data_I
_chemical_name_common ''
_cell_length_a 20.652
_cell_length_b 13.157
_cell_length_c 17.994
_cell_angle_alpha 79.403
_cell_angle_beta 86.853
_cell_angle_gamma 78.876
_space_group_name_H-M_alt 'P 1'
_space_group_name_Hall 'P 1'
loop_
    _symmetry_equiv_pos_as_xyz
    x,y,z
loop_
    _atom_site_label
    _atom_site_type_symbol
    _atom_site_fract_x
    _atom_site_fract_y
    _atom_site_fract_z
    _atom_site_occupancy
    Zr0     Zr   0.46681   0.91203   0.79877   1.000
    Zr1     Zr   0.96680   0.91203   0.79877   1.000
    Zr2     Zr   0.03318   0.08797   0.20123   1.000
    Zr3     Zr   0.53317   0.08798   0.20120   1.000
    Zr4     Zr   0.25000   0.50000   0.50000   1.000
    Zr5     Zr   0.74999   0.50000   0.50000   1.000
    N6      N    0.49999   0.00000   0.49999   1.000
    O7      O    0.59826   0.77585   0.49696   1.000
    O8      O    0.40172   0.22415   0.50303   1.000
    N9      N    0.69639   0.11430   0.72612   1.000
    O10     O    0.71762   0.27004   0.63802   1.000
    O11     O    0.80161   0.00962   0.76035   1.000
    O12     O    0.80973   0.04843   0.75183   1.000
    O13     O    0.59837   0.04265   0.75181   1.000
    N14     N    0.00528   0.62319   0.18019   1.000
    O15     O    0.98537   0.76166   0.02166   1.000
    O16     O    0.01094   0.39209   0.20380   1.000
    N17     N    0.30359   0.88571   0.27387   1.000
    O18     O    0.28237   0.72995   0.36197   1.000
    O19     O    0.19025   0.95156   0.24817   1.000
    O20     O    0.19837   0.99037   0.23964   1.000
    O21     O    0.40161   0.95736   0.24818   1.000
    N22     N    0.50537   0.62320   0.18019   1.000
    O23     O    0.48541   0.76166   0.02167   1.000
    O24     O    0.51168   0.39209   0.20380   1.000
    N25     N    0.49461   0.37680   0.81981   1.000
    O26     O    0.48830   0.60791   0.79619   1.000
    O27     O    0.51457   0.23834   0.97833   1.000
    N28     N    0.99459   0.37680   0.81980   1.000
    O29     O    0.01456   0.23833   0.97833   1.000
    O30     O    0.98829   0.60791   0.79619   1.000
    N31     N    0.25000   0.00000   0.49999   1.000
    O32     O    0.24380   0.22521   0.47824   1.000
    O33     O    0.25620   0.77479   0.52167   1.000
    N34     N    0.80358   0.88570   0.27386   1.000
    O35     O    0.90160   0.95735   0.24816   1.000
    O36     O    0.78236   0.72995   0.36197   1.000
    O37     O    0.69024   0.95156   0.24816   1.000
    O38     O    0.69836   0.99037   0.23963   1.000
    N39     N    0.99999   1.00000   0.49999   1.000
    O40     O    0.90172   0.22415   0.50303   1.000
    O41     O    0.09827   0.77584   0.49696   1.000
    N42     N    0.74999   0.00000   0.49999   1.000
    O43     O    0.74379   0.22521   0.47832   1.000
    O44     O    0.75619   0.77479   0.52167   1.000
    N45     N    0.19640   0.11430   0.72611   1.000
    O46     O    0.09838   0.04265   0.75180   1.000
    O47     O    0.30162   0.00962   0.76035   1.000
    O48     O    0.21763   0.27004   0.63801   1.000
    O49     O    0.30974   0.04844   0.75182   1.000
loop_
    _geom_bond_atom_site_label_1
    _geom_bond_atom_site_label_2
    _geom_bond_distance
    _geom_bond_site_symmetry_2
    _ccdc_geom_bond_type
    N6     O7        3.24916  1_545   S
    Zr5    O7        4.30708      .   S
    N6     O8        3.24918      .   S
    Zr4    O8        4.30707      .   S
    N9     O10       2.44539      .   S
    Zr5    O10       3.68826      .   S
    N9     O11       2.38293      .   S
    Zr1    O11       3.46516  1_565   S
    N9     O12       2.37332      .   S
    Zr1    O12       3.45744  1_565   S
    N9     O13       2.38182      .   S
    Zr0    O13       3.47349  1_565   S
    N14    O15       3.09089  1_455   S
    Zr1    O15       4.13578  1_556   S
    N14    O16       2.97205      .   S
    Zr2    O16       3.94713      .   S
    N17    O18       2.44544      .   S
    Zr4    O18       3.68825      .   S
    N17    O19       2.37328      .   S
    Zr2    O19       3.45741  1_545   S
    N17    O20       2.38291      .   S
    Zr2    O20       3.46511  1_545   S
    N17    O21       2.38185      .   S
    Zr3    O21       3.47358  1_545   S
    N22    O23       3.09092      .   S
    Zr0    O23       4.13588  1_556   S
    N22    O24       2.97003      .   S
    Zr3    O24       3.94849      .   S
    N25    O26       2.97004      .   S
    Zr0    O26       3.94841      .   S
    N25    O27       3.09082      .   S
    Zr3    O27       4.13546  1_554   S
    N28    O29       3.09101  1_655   S
    Zr2    O29       4.13589  1_554   S
    N28    O30       2.97008      .   S
    Zr1    O30       3.94843      .   S
    N31    O32       2.89514      .   S
    Zr4    O32       3.73437      .   S
    N31    O33       2.89522  1_545   S
    Zr4    O33       3.73400      .   S
    N34    O35       2.38195      .   S
    Zr2    O35       3.47374  1_445   S
    N34    O36       2.44546      .   S
    Zr5    O36       3.68829      .   S
    N34    O37       2.37331      .   S
    Zr3    O37       3.45748  1_545   S
    N34    O38       2.38293      .   S
    Zr3    O38       3.46517  1_545   S
    N39    O40       3.24923  1_565   S
    Zr5    O40       4.30714      .   S
    N39    O41       3.24921  1_655   S
    Zr4    O41       4.30712      .   S
    N42    O43       2.89522      .   S
    Zr5    O43       3.73400      .   S
    N42    O44       2.89522  1_545   S
    Zr5    O44       3.73399      .   S
    N45    O46       2.38192      .   S
    Zr1    O46       3.47380  1_665   S
    N45    O47       2.38294      .   S
    Zr0    O47       3.46517  1_565   S
    N45    O48       2.44546      .   S
    Zr4    O48       3.68812      .   S
    N45    O49       2.37333      .   S
    Zr0    O49       3.45744  1_565   S
