# CIF file generated by openbabel 2.4.90, see http://openbabel.sf.net
data_I
_chemical_name_common ''
_cell_length_a 19.597
_cell_length_b 14.255
_cell_length_c 14.261
_cell_angle_alpha 102.692
_cell_angle_beta 103.349
_cell_angle_gamma 103.22
_space_group_name_H-M_alt 'P 1'
_space_group_name_Hall 'P 1'
loop_
    _symmetry_equiv_pos_as_xyz
    x,y,z
loop_
    _atom_site_label
    _atom_site_type_symbol
    _atom_site_fract_x
    _atom_site_fract_y
    _atom_site_fract_z
    _atom_site_occupancy
    Zn0     Zn   0.95249   0.83495   0.27133   1.000
    Zn1     Zn   0.29744   0.72872   0.16498   1.000
    Zn2     Zn   0.79744   0.72872   0.16498   1.000
    Zn3     Zn   0.04749   0.16505   0.72867   1.000
    Zn4     Zn   0.54750   0.16505   0.72867   1.000
    Zn5     Zn   0.20253   0.27127   0.83502   1.000
    Zn6     Zn   0.70253   0.27128   0.83500   1.000
    Zn7     Zn   0.45248   0.83494   0.27133   1.000
loop_
    _geom_bond_atom_site_label_1
    _geom_bond_atom_site_label_2
    _geom_bond_distance
    _geom_bond_site_symmetry_2
    _ccdc_geom_bond_type
    Zn7    Zn1       2.92971      .   S
    Zn0    Zn2       2.92979      .   S
    Zn3    Zn5       2.92981      .   S
    Zn4    Zn6       2.92962      .   S
