# CIF file generated by openbabel 2.4.90, see http://openbabel.sf.net
data_I
_chemical_name_common ''
_cell_length_a 19.597
_cell_length_b 14.255
_cell_length_c 14.261
_cell_angle_alpha 102.692
_cell_angle_beta 103.349
_cell_angle_gamma 103.22
_space_group_name_H-M_alt 'P 1'
_space_group_name_Hall 'P 1'
loop_
    _symmetry_equiv_pos_as_xyz
    x,y,z
loop_
    _atom_site_label
    _atom_site_type_symbol
    _atom_site_fract_x
    _atom_site_fract_y
    _atom_site_fract_z
    _atom_site_occupancy
    Zr0     Zr   0.45248   0.83494   0.27133   1.000
    Zr1     Zr   0.95249   0.83495   0.27133   1.000
    Zr2     Zr   0.29744   0.72872   0.16498   1.000
    Zr3     Zr   0.79744   0.72872   0.16498   1.000
    Zr4     Zr   0.04749   0.16505   0.72867   1.000
    Zr5     Zr   0.54750   0.16505   0.72867   1.000
    Zr6     Zr   0.20253   0.27127   0.83502   1.000
    Zr7     Zr   0.70253   0.27128   0.83500   1.000
    O8      O    0.37496   0.78183   0.21816   1.000
    O9      O    0.87496   0.78183   0.21816   1.000
    O10     O    0.12501   0.21816   0.78185   1.000
    O11     O    0.62502   0.21816   0.78184   1.000
    N12     N    0.62225   0.72247   0.80435   1.000
    O13     O    0.65288   0.52667   0.81472   1.000
    O14     O    0.66400   0.96108   0.82029   1.000
    O15     O    0.59643   0.91381   0.76705   1.000
    O16     O    0.58333   0.48069   0.77467   1.000
    N17     N    0.87775   0.27755   0.19565   1.000
    O18     O    0.84711   0.47334   0.18528   1.000
    O19     O    0.91666   0.51932   0.22533   1.000
    O20     O    0.83599   0.03894   0.17972   1.000
    O21     O    0.90356   0.08619   0.23293   1.000
    N22     N    0.99999   0.49999   0.99992   1.000
    O23     O    0.87847   0.40656   0.93454   1.000
    O24     O    0.12151   0.59342   0.06536   1.000
    N25     N    0.24999   0.99993   0.49999   1.000
    O26     O    0.12845   0.93447   0.40657   1.000
    O27     O    0.37153   0.06545   0.59342   1.000
    N28     N    0.37775   0.27755   0.19564   1.000
    O29     O    0.34711   0.47334   0.18527   1.000
    O30     O    0.40356   0.08619   0.23293   1.000
    O31     O    0.41666   0.51931   0.22532   1.000
    O32     O    0.33599   0.03893   0.17971   1.000
    N33     N    0.12768   0.19551   0.27751   1.000
    O34     O    0.09706   0.18527   0.47330   1.000
    O35     O    0.08599   0.17960   0.03887   1.000
    O36     O    0.16662   0.22525   0.51933   1.000
    O37     O    0.15356   0.23273   0.08621   1.000
    N38     N    0.87232   0.80450   0.72248   1.000
    O39     O    0.91399   0.82041   0.96113   1.000
    O40     O    0.84643   0.76727   0.91379   1.000
    O41     O    0.90293   0.81474   0.52670   1.000
    O42     O    0.83337   0.77475   0.48067   1.000
    N43     N    0.74999   0.99990   0.49998   1.000
    O44     O    0.62845   0.93445   0.40656   1.000
    O45     O    0.87153   0.06543   0.59341   1.000
    N46     N    0.62769   0.19551   0.27752   1.000
    O47     O    0.58600   0.17959   0.03887   1.000
    O48     O    0.59706   0.18527   0.47330   1.000
    O49     O    0.65356   0.23275   0.08621   1.000
    O50     O    0.66662   0.22525   0.51933   1.000
    N51     N    0.12225   0.72246   0.80436   1.000
    O52     O    0.16400   0.96107   0.82029   1.000
    O53     O    0.09643   0.91381   0.76707   1.000
    O54     O    0.08332   0.48069   0.77468   1.000
    O55     O    0.15288   0.52666   0.81474   1.000
    N56     N    0.37231   0.80450   0.72248   1.000
    O57     O    0.40292   0.81474   0.52670   1.000
    O58     O    0.41399   0.82041   0.96113   1.000
    O59     O    0.33336   0.77475   0.48067   1.000
    O60     O    0.34642   0.76726   0.91379   1.000
    N61     N    0.49999   0.49999   0.99991   1.000
    O62     O    0.62151   0.59342   0.06536   1.000
    O63     O    0.37847   0.40656   0.93454   1.000
loop_
    _geom_bond_atom_site_label_1
    _geom_bond_atom_site_label_2
    _geom_bond_distance
    _geom_bond_site_symmetry_2
    _ccdc_geom_bond_type
    Zr0    O8        1.46486      .   S
    Zr2    O8        1.46486      .   S
    Zr1    O9        1.46490      .   S
    Zr3    O9        1.46490      .   S
    Zr4    O10       1.46491      .   S
    Zr6    O10       1.46491      .   S
    Zr5    O11       1.46481      .   S
    Zr7    O11       1.46481      .   S
    N12    O13       3.01320      .   S
    Zr7    O13       4.02956      .   S
    N12    O14       3.25451      .   S
    Zr7    O14       4.26140  1_545   S
    N12    O15       3.02047      .   S
    Zr5    O15       4.02929  1_545   S
    N12    O16       3.26297      .   S
    Zr5    O16       4.26780      .   S
    N17    O18       3.01317      .   S
    Zr3    O18       4.02962      .   S
    N17    O19       3.26285      .   S
    Zr1    O19       4.26761      .   S
    N17    O20       3.25460      .   S
    Zr3    O20       4.26147  1_565   S
    N17    O21       3.02054      .   S
    Zr1    O21       4.02940  1_565   S
    N22    O23       2.30056      .   S
    Zr7    O23       3.33432      .   S
    N22    O24       2.30056  1_656   S
    Zr2    O24       3.33431      .   S
    N25    O26       2.30017      .   S
    Zr1    O26       3.33354  1_655   S
    N25    O27       2.30023  1_565   S
    Zr5    O27       3.33371      .   S
    N28    O29       3.01317      .   S
    Zr2    O29       4.02962      .   S
    N28    O30       3.02054      .   S
    Zr0    O30       4.02937  1_565   S
    N28    O31       3.26285      .   S
    Zr0    O31       4.26763      .   S
    N28    O32       3.25461      .   S
    Zr2    O32       4.26147  1_565   S
    N33    O34       3.01494      .   S
    Zr4    O34       4.03201      .   S
    N33    O35       3.25472      .   S
    Zr4    O35       4.26216  1_556   S
    N33    O36       3.26331      .   S
    Zr6    O36       4.26872      .   S
    N33    O37       3.02224      .   S
    Zr6    O37       4.03309  1_556   S
    N38    O39       3.25482      .   S
    Zr1    O39       4.26224  1_554   S
    N38    O40       3.02241      .   S
    Zr3    O40       4.03329  1_554   S
    N38    O41       3.01475      .   S
    Zr1    O41       4.03182      .   S
    N38    O42       3.26322      .   S
    Zr3    O42       4.26863      .   S
    N43    O44       2.30020      .   S
    Zr0    O44       3.33366      .   S
    N43    O45       2.30019  1_565   S
    Zr4    O45       3.33355  1_455   S
    N46    O47       3.25482      .   S
    Zr5    O47       4.26223  1_556   S
    N46    O48       3.01481      .   S
    Zr5    O48       4.03191      .   S
    N46    O49       3.02244      .   S
    Zr7    O49       4.03334  1_556   S
    N46    O50       3.26315      .   S
    Zr7    O50       4.26842      .   S
    N51    O52       3.25454      .   S
    Zr6    O52       4.26135  1_545   S
    N51    O53       3.02053      .   S
    Zr4    O53       4.02940  1_545   S
    N51    O54       3.26294      .   S
    Zr4    O54       4.26773      .   S
    N51    O55       3.01319      .   S
    Zr6    O55       4.02958      .   S
    N56    O57       3.01479      .   S
    Zr0    O57       4.03182      .   S
    N56    O58       3.25479      .   S
    Zr0    O58       4.26222  1_554   S
    N56    O59       3.26326      .   S
    Zr2    O59       4.26865      .   S
    N56    O60       3.02240      .   S
    Zr2    O60       4.03323  1_554   S
    N61    O62       2.30060  1_556   S
    Zr3    O62       3.33434      .   S
    N61    O63       2.30058      .   S
    Zr6    O63       3.33432      .   S
