# CIF file generated by openbabel 2.4.90, see http://openbabel.sf.net
data_I
_chemical_name_common ''
_cell_length_a 13.188
_cell_length_b 13.2
_cell_length_c 23.339
_cell_angle_alpha 90.007
_cell_angle_beta 89.999
_cell_angle_gamma 90.45
_space_group_name_H-M_alt 'P 1'
_space_group_name_Hall 'P 1'
loop_
    _symmetry_equiv_pos_as_xyz
    x,y,z
loop_
    _atom_site_label
    _atom_site_type_symbol
    _atom_site_fract_x
    _atom_site_fract_y
    _atom_site_fract_z
    _atom_site_occupancy
    Zn0     Zn   0.27579   0.34729   0.87463   1.000
    Zn1     Zn   0.74638   0.63538   0.25038   1.000
    Zn2     Zn   0.72423   0.65270   0.37464   1.000
    Zn3     Zn   0.25364   0.36459   0.75037   1.000
loop_
    _geom_bond_atom_site_label_1
    _geom_bond_atom_site_label_2
    _geom_bond_distance
    _geom_bond_site_symmetry_2
    _ccdc_geom_bond_type
    Zn3    Zn0       2.92391      .   S
    Zn1    Zn2       2.92388      .   S
