# CIF file generated by openbabel 2.4.90, see http://openbabel.sf.net
data_I
_chemical_name_common ''
_cell_length_a 13.188
_cell_length_b 13.2
_cell_length_c 23.339
_cell_angle_alpha 90.007
_cell_angle_beta 89.999
_cell_angle_gamma 90.45
_space_group_name_H-M_alt 'P 1'
_space_group_name_Hall 'P 1'
loop_
    _symmetry_equiv_pos_as_xyz
    x,y,z
loop_
    _atom_site_label
    _atom_site_type_symbol
    _atom_site_fract_x
    _atom_site_fract_y
    _atom_site_fract_z
    _atom_site_occupancy
    N0      N    0.26322   0.85596   0.81311   1.000
    N1      N    0.76497   0.35616   0.81293   1.000
    N2      N    0.71593   0.63447   0.81131   1.000
    N3      N    0.28410   0.36551   0.31124   1.000
    N4      N    0.23505   0.64383   0.31293   1.000
    N5      N    0.73680   0.14402   0.31312   1.000
    Zr6     Zr   0.73531   0.64404   0.31251   1.000
    O7      O    0.87691   0.64790   0.32693   1.000
    O8      O    0.58856   0.64345   0.32598   1.000
    O9      O    0.72745   0.64705   0.46374   1.000
    O10     O    0.73516   0.50178   0.32770   1.000
    O11     O    0.73143   0.79015   0.32538   1.000
    O12     O    0.59349   0.63957   0.29838   1.000
    O13     O    0.88191   0.64463   0.29929   1.000
    O14     O    0.73199   0.63520   0.16081   1.000
    O15     O    0.73579   0.78624   0.29775   1.000
    O16     O    0.74063   0.49797   0.30015   1.000
    Zr17    Zr   0.26471   0.35594   0.81250   1.000
    O18     O    0.26486   0.49821   0.82769   1.000
    O19     O    0.26859   0.20984   0.82537   1.000
    O20     O    0.41146   0.35653   0.82597   1.000
    O21     O    0.12311   0.35209   0.82693   1.000
    O22     O    0.27257   0.35293   0.96372   1.000
    O23     O    0.26424   0.21374   0.79774   1.000
    O24     O    0.25939   0.50201   0.80014   1.000
    O25     O    0.11811   0.35535   0.79929   1.000
    O26     O    0.40653   0.36042   0.79837   1.000
    O27     O    0.26803   0.36477   0.66078   1.000
loop_
    _geom_bond_atom_site_label_1
    _geom_bond_atom_site_label_2
    _geom_bond_distance
    _geom_bond_site_symmetry_2
    _ccdc_geom_bond_type
    Zr6    O7        1.89788      .   S
    N4     O7        4.73512  1_455   S
    Zr6    O8        1.96057      .   S
    N4     O8        4.67213      .   S
    Zr6    O9        3.53131      .   S
    N2     O9        8.11496      .   S
    Zr6    O10       1.91104      .   S
    N5     O10       4.73483      .   S
    Zr6    O11       1.95285      .   S
    N5     O11       4.67994  1_545   S
    Zr6    O12       1.89960      .   S
    N4     O12       4.74010      .   S
    Zr6    O13       1.95776      .   S
    N4     O13       4.66819  1_455   S
    Zr6    O14       3.54274      .   S
    N2     O14       8.15977  1_556   S
    Zr6    O15       1.90838      .   S
    N5     O15       4.73624  1_545   S
    Zr6    O16       1.95140      .   S
    N5     O16       4.68179      .   S
    Zr17   O18       1.91099      .   S
    N0     O18       4.73486      .   S
    Zr17   O19       1.95290      .   S
    N0     O19       4.67991  1_565   S
    Zr17   O20       1.96059      .   S
    N1     O20       4.67211      .   S
    Zr17   O21       1.89789      .   S
    N1     O21       4.73511  1_655   S
    Zr17   O22       3.53099      .   S
    N3     O22       8.11392  1_554   S
    Zr17   O23       1.90832      .   S
    N0     O23       4.73629  1_565   S
    Zr17   O24       1.95144      .   S
    N0     O24       4.68173      .   S
    Zr17   O25       1.95776      .   S
    N1     O25       4.66820  1_655   S
    Zr17   O26       1.89959      .   S
    N1     O26       4.74012      .   S
    Zr17   O27       3.54310      .   S
    N3     O27       8.16076      .   S
