# CIF file generated by openbabel 2.4.90, see http://openbabel.sf.net
data_I
_chemical_name_common ''
_cell_length_a 16.563
_cell_length_b 16.569
_cell_length_c 16.571
_cell_angle_alpha 105.564
_cell_angle_beta 105.413
_cell_angle_gamma 105.367
_space_group_name_H-M_alt 'P 1'
_space_group_name_Hall 'P 1'
loop_
    _symmetry_equiv_pos_as_xyz
    x,y,z
loop_
    _atom_site_label
    _atom_site_type_symbol
    _atom_site_fract_x
    _atom_site_fract_y
    _atom_site_fract_z
    _atom_site_occupancy
    Zr0     Zr   0.56365   0.25050   0.93818   1.000
    Zr1     Zr   0.74939   0.43629   0.06201   1.000
    Zr2     Zr   0.93800   0.56346   0.25077   1.000
    Zr3     Zr   0.06199   0.74917   0.43644   1.000
    Zr4     Zr   0.25064   0.93789   0.56358   1.000
    Zr5     Zr   0.43628   0.06174   0.74942   1.000
    Zr6     Zr   0.43637   0.74957   0.06183   1.000
    Zr7     Zr   0.25063   0.56376   0.93801   1.000
    Zr8     Zr   0.06202   0.43659   0.74923   1.000
    Zr9     Zr   0.93802   0.25088   0.56356   1.000
    Zr10    Zr   0.74939   0.06221   0.43645   1.000
    Zr11    Zr   0.56373   0.93832   0.25059   1.000
    N12     N    0.00001   0.50002   0.50000   1.000
    O13     O    0.98168   0.52916   0.40551   1.000
    O14     O    0.01834   0.59447   0.47081   1.000
    O15     O    0.98168   0.40558   0.52919   1.000
    O16     O    0.01834   0.47089   0.59448   1.000
    N17     N    0.50001   0.50003   1.00000   1.000
    O18     O    0.47078   0.59461   0.01826   1.000
    O19     O    0.59453   0.47074   0.01833   1.000
    O20     O    0.52925   0.40545   0.98174   1.000
    O21     O    0.40549   0.52932   0.98166   1.000
    N22     N    0.50001   0.00003   1.00000   1.000
    O23     O    0.48073   0.90515   0.02868   1.000
    O24     O    0.48070   0.02866   0.90508   1.000
    O25     O    0.51932   0.97139   0.09492   1.000
    O26     O    0.51930   0.09490   0.97132   1.000
    N27     N    0.00001   0.50003   1.00000   1.000
    O28     O    0.90507   0.48069   0.02875   1.000
    O29     O    0.97125   0.51922   0.09497   1.000
    O30     O    0.02876   0.48083   0.90503   1.000
    O31     O    0.09494   0.51936   0.97125   1.000
    N32     N    0.50001   0.00003   0.49999   1.000
    O33     O    0.40548   0.98163   0.52919   1.000
    O34     O    0.59455   0.01844   0.47079   1.000
    O35     O    0.47074   0.01823   0.59452   1.000
    O36     O    0.52928   0.98182   0.40547   1.000
    N37     N    0.00001   0.00003   0.49998   1.000
    O38     O    0.02876   0.90503   0.48075   1.000
    O39     O    0.09494   0.97122   0.51926   1.000
    O40     O    0.97126   0.09503   0.51923   1.000
    O41     O    0.90508   0.02884   0.48073   1.000
loop_
    _geom_bond_atom_site_label_1
    _geom_bond_atom_site_label_2
    _geom_bond_distance
    _geom_bond_site_symmetry_2
    _ccdc_geom_bond_type
    N12    O13       1.73410  1_455   S
    Zr2    O13       2.72687      .   S
    N12    O14       1.73420      .   S
    Zr3    O14       2.72714      .   S
    N12    O15       1.73423  1_455   S
    Zr9    O15       2.72715      .   S
    N12    O16       1.73415      .   S
    Zr8    O16       2.72688      .   S
    N17    O18       1.73418  1_556   S
    Zr6    O18       2.72716      .   S
    N17    O19       1.73430  1_556   S
    Zr1    O19       2.72745      .   S
    N17    O20       1.73414      .   S
    Zr0    O20       2.72706      .   S
    N17    O21       1.73432      .   S
    Zr7    O21       2.72741      .   S
    N22    O23       1.73621  1_546   S
    Zr6    O23       2.73094      .   S
    N22    O24       1.73627      .   S
    Zr5    O24       2.73112      .   S
    N22    O25       1.73634  1_546   S
    Zr11   O25       2.73126      .   S
    N22    O26       1.73621      .   S
    Zr0    O26       2.73094      .   S
    N27    O28       1.73647  1_456   S
    Zr1    O28       2.73164      .   S
    N27    O29       1.73635  1_456   S
    Zr2    O29       2.73140      .   S
    N27    O30       1.73625      .   S
    Zr8    O30       2.73137      .   S
    N27    O31       1.73637      .   S
    Zr7    O31       2.73151      .   S
    N32    O33       1.73424  1_545   S
    Zr4    O33       2.72768      .   S
    N32    O34       1.73429      .   S
    Zr10   O34       2.72733      .   S
    N32    O35       1.73421      .   S
    Zr5    O35       2.72720      .   S
    N32    O36       1.73400  1_545   S
    Zr11   O36       2.72689      .   S
    N37    O38       1.73629  1_545   S
    Zr3    O38       2.73157      .   S
    N37    O39       1.73629  1_545   S
    Zr4    O39       2.73147      .   S
    N37    O40       1.73629  1_455   S
    Zr9    O40       2.73157      .   S
    N37    O41       1.73634  1_455   S
    Zr10   O41       2.73154      .   S
