# CIF file generated by openbabel 2.4.90, see http://openbabel.sf.net
data_I
_chemical_name_common ''
_cell_length_a 16.563
_cell_length_b 16.569
_cell_length_c 16.571
_cell_angle_alpha 105.564
_cell_angle_beta 105.413
_cell_angle_gamma 105.367
_space_group_name_H-M_alt 'P 1'
_space_group_name_Hall 'P 1'
loop_
    _symmetry_equiv_pos_as_xyz
    x,y,z
loop_
    _atom_site_label
    _atom_site_type_symbol
    _atom_site_fract_x
    _atom_site_fract_y
    _atom_site_fract_z
    _atom_site_occupancy
    C0      C    0.56365   0.25050   0.93818   1.000
    C1      C    0.74939   0.43629   0.06201   1.000
    C2      C    0.93800   0.56346   0.25077   1.000
    C3      C    0.06199   0.74917   0.43644   1.000
    C4      C    0.25064   0.93789   0.56358   1.000
    C5      C    0.43628   0.06174   0.74942   1.000
    C6      C    0.43637   0.74957   0.06183   1.000
    C7      C    0.25063   0.56376   0.93801   1.000
    C8      C    0.06202   0.43659   0.74923   1.000
    C9      C    0.93802   0.25088   0.56356   1.000
    C10     C    0.74939   0.06221   0.43645   1.000
    C11     C    0.56373   0.93832   0.25059   1.000
    C12     C    0.46802   0.90932   0.74430   1.000
    C13     C    0.37025   0.86688   0.76533   1.000
    C14     C    0.62978   0.23464   0.13316   1.000
    C15     C    0.53202   0.25574   0.09064   1.000
    C16     C    0.59769   0.78791   0.85529   1.000
    C17     C    0.61300   0.90297   0.90311   1.000
    C18     C    0.59771   0.85525   0.78804   1.000
    C19     C    0.44676   0.74116   0.67371   1.000
    C20     C    0.35420   0.70780   0.70769   1.000
    C21     C    0.44665   0.67365   0.74124   1.000
    C22     C    0.39633   0.29313   0.03030   1.000
    C23     C    0.40170   0.23748   0.92560   1.000
    C24     C    0.76255   0.59809   0.07419   1.000
    C25     C    0.70691   0.60329   0.96954   1.000
    C26     C    0.29433   0.22626   0.78354   1.000
    C27     C    0.34417   0.34401   0.81281   1.000
    C28     C    0.22641   0.29451   0.78360   1.000
    C29     C    0.23379   0.23426   0.98761   1.000
    C30     C    0.22920   0.16193   0.88366   1.000
    C31     C    0.16177   0.22943   0.88358   1.000
    C32     C    0.74448   0.46818   0.90970   1.000
    C33     C    0.76549   0.37033   0.86690   1.000
    C34     C    0.13282   0.62974   0.23460   1.000
    C35     C    0.09035   0.53197   0.25550   1.000
    C36     C    0.85552   0.59776   0.78841   1.000
    C37     C    0.90319   0.61317   0.90342   1.000
    C38     C    0.78818   0.59787   0.85582   1.000
    C39     C    0.67402   0.44681   0.74159   1.000
    C40     C    0.70809   0.35421   0.70798   1.000
    C41     C    0.74164   0.44663   0.67399   1.000
    C42     C    0.03013   0.39592   0.29271   1.000
    C43     C    0.92553   0.40135   0.23732   1.000
    C44     C    0.07437   0.76270   0.59846   1.000
    C45     C    0.96982   0.70732   0.60388   1.000
    C46     C    0.78353   0.29420   0.22631   1.000
    C47     C    0.81284   0.34421   0.34413   1.000
    C48     C    0.78360   0.22636   0.29444   1.000
    C49     C    0.98739   0.23325   0.23350   1.000
    C50     C    0.88350   0.22873   0.16150   1.000
    C51     C    0.88339   0.16138   0.22888   1.000
    C52     C    0.90973   0.74455   0.46814   1.000
    C53     C    0.86718   0.76541   0.37033   1.000
    C54     C    0.23451   0.13298   0.62969   1.000
    C55     C    0.25551   0.09016   0.53185   1.000
    C56     C    0.78821   0.85596   0.59782   1.000
    C57     C    0.90321   0.90361   0.61319   1.000
    C58     C    0.85566   0.78861   0.59780   1.000
    C59     C    0.74166   0.67422   0.44674   1.000
    C60     C    0.70821   0.70809   0.35418   1.000
    C61     C    0.67404   0.74186   0.44665   1.000
    C62     C    0.29301   0.03040   0.39652   1.000
    C63     C    0.23744   0.92578   0.40168   1.000
    C64     C    0.59824   0.07441   0.76258   1.000
    C65     C    0.60372   0.96975   0.70698   1.000
    C66     C    0.22645   0.78365   0.29416   1.000
    C67     C    0.34420   0.81286   0.34399   1.000
    C68     C    0.29462   0.78361   0.22600   1.000
    C69     C    0.23387   0.98760   0.23385   1.000
    C70     C    0.16179   0.88372   0.22910   1.000
    C71     C    0.22920   0.88351   0.16169   1.000
    C72     C    0.53200   0.09073   0.25570   1.000
    C73     C    0.62977   0.13317   0.23467   1.000
    C74     C    0.37025   0.76542   0.86684   1.000
    C75     C    0.46801   0.74432   0.90936   1.000
    C76     C    0.40233   0.21215   0.14471   1.000
    C77     C    0.38703   0.09709   0.09689   1.000
    C78     C    0.40231   0.14480   0.21195   1.000
    C79     C    0.55326   0.25890   0.32629   1.000
    C80     C    0.64582   0.29225   0.29231   1.000
    C81     C    0.55337   0.32641   0.25876   1.000
    C82     C    0.60369   0.70692   0.96969   1.000
    C83     C    0.59832   0.76258   0.07441   1.000
    C84     C    0.23748   0.40197   0.92580   1.000
    C85     C    0.29310   0.39676   0.03046   1.000
    C86     C    0.70569   0.77379   0.21646   1.000
    C87     C    0.65585   0.65604   0.18719   1.000
    C88     C    0.77361   0.70554   0.21633   1.000
    C89     C    0.76624   0.76580   0.01239   1.000
    C90     C    0.77082   0.83812   0.11635   1.000
    C91     C    0.83825   0.77062   0.11642   1.000
    C92     C    0.25554   0.53187   0.09030   1.000
    C93     C    0.23452   0.62972   0.13300   1.000
    C94     C    0.86720   0.37031   0.76535   1.000
    C95     C    0.90966   0.46808   0.74444   1.000
    C96     C    0.14450   0.40229   0.21159   1.000
    C97     C    0.09683   0.38688   0.09658   1.000
    C98     C    0.21184   0.40219   0.14418   1.000
    C99     C    0.32599   0.55324   0.25841   1.000
    C100    C    0.29192   0.64584   0.29202   1.000
    C101    C    0.25839   0.55342   0.32601   1.000
    C102    C    0.96989   0.60413   0.70729   1.000
    C103    C    0.07449   0.59870   0.76268   1.000
    C104    C    0.92564   0.23735   0.40153   1.000
    C105    C    0.03020   0.29273   0.39612   1.000
    C106    C    0.21649   0.70585   0.77368   1.000
    C107    C    0.18717   0.65584   0.65586   1.000
    C108    C    0.21641   0.77368   0.70556   1.000
    C109    C    0.01263   0.76680   0.76645   1.000
    C110    C    0.11652   0.77132   0.83850   1.000
    C111    C    0.11663   0.83867   0.77112   1.000
    C112    C    0.09029   0.25551   0.53185   1.000
    C113    C    0.13283   0.23465   0.62967   1.000
    C114    C    0.76551   0.86709   0.37030   1.000
    C115    C    0.74450   0.90989   0.46814   1.000
    C116    C    0.21181   0.14410   0.40218   1.000
    C117    C    0.09681   0.09644   0.38680   1.000
    C118    C    0.14436   0.21144   0.40219   1.000
    C119    C    0.25836   0.32583   0.55325   1.000
    C120    C    0.29181   0.29197   0.64581   1.000
    C121    C    0.32598   0.25819   0.55335   1.000
    C122    C    0.70701   0.96965   0.60340   1.000
    C123    C    0.76257   0.07428   0.59832   1.000
    C124    C    0.40178   0.92564   0.23742   1.000
    C125    C    0.39630   0.03030   0.29302   1.000
    C126    C    0.77357   0.21640   0.70585   1.000
    C127    C    0.65582   0.18720   0.65602   1.000
    C128    C    0.70540   0.21644   0.77381   1.000
    C129    C    0.76614   0.01245   0.76614   1.000
    C130    C    0.83822   0.11633   0.77080   1.000
    C131    C    0.77082   0.11654   0.83831   1.000
    C132    C    0.52519   0.12222   0.02783   1.000
    C133    C    0.51252   0.03824   0.03823   1.000
    C134    C    0.47486   0.97219   0.87778   1.000
    C135    C    0.44432   0.89065   0.79510   1.000
    C136    C    0.47382   0.81445   0.81447   1.000
    C137    C    0.55571   0.20488   0.10935   1.000
    C138    C    0.57637   0.84209   0.84218   1.000
    C139    C    0.42762   0.72938   0.72940   1.000
    C140    C    0.62072   0.52618   0.01730   1.000
    C141    C    0.53728   0.53726   0.00754   1.000
    C142    C    0.47372   0.37932   0.98274   1.000
    C143    C    0.39465   0.29861   0.96484   1.000
    C144    C    0.30325   0.30338   0.91616   1.000
    C145    C    0.70147   0.60515   0.03509   1.000
    C146    C    0.29147   0.29146   0.81813   1.000
    C147    C    0.22760   0.22786   0.91815   1.000
    C148    C    0.02766   0.52508   0.12218   1.000
    C149    C    0.03816   0.51250   0.03818   1.000
    C150    C    0.87785   0.47489   0.97230   1.000
    C151    C    0.79530   0.44442   0.89085   1.000
    C152    C    0.81470   0.47391   0.81473   1.000
    C153    C    0.10910   0.55565   0.20475   1.000
    C154    C    0.84234   0.57650   0.84256   1.000
    C155    C    0.72974   0.42766   0.72970   1.000
    C156    C    0.01734   0.62080   0.52638   1.000
    C157    C    0.00756   0.53736   0.53731   1.000
    C158    C    0.98267   0.47354   0.37921   1.000
    C159    C    0.96474   0.39434   0.29836   1.000
    C160    C    0.91605   0.30299   0.30308   1.000
    C161    C    0.03523   0.70169   0.60552   1.000
    C162    C    0.81809   0.29138   0.29142   1.000
    C163    C    0.91798   0.22718   0.22730   1.000
    C164    C    0.12214   0.02763   0.52509   1.000
    C165    C    0.03815   0.03817   0.51246   1.000
    C166    C    0.97236   0.87787   0.47495   1.000
    C167    C    0.89095   0.79534   0.44442   1.000
    C168    C    0.81475   0.81488   0.47391   1.000
    C169    C    0.20469   0.10904   0.55500   1.000
    C170    C    0.84241   0.84273   0.57650   1.000
    C171    C    0.72979   0.72989   0.42763   1.000
    C172    C    0.52628   0.01726   0.62071   1.000
    C173    C    0.53728   0.00755   0.53726   1.000
    C174    C    0.37926   0.98268   0.47373   1.000
    C175    C    0.29852   0.96491   0.39469   1.000
    C176    C    0.30328   0.91617   0.30320   1.000
    C177    C    0.60535   0.03519   0.70149   1.000
    C178    C    0.29157   0.81815   0.29130   1.000
    C179    C    0.22763   0.91815   0.22758   1.000
    C180    C    0.47485   0.87783   0.97217   1.000
    C181    C    0.48750   0.96181   0.96177   1.000
    C182    C    0.52517   0.02787   0.12222   1.000
    C183    C    0.55570   0.10941   0.20487   1.000
    C184    C    0.52621   0.18561   0.18550   1.000
    C185    C    0.44431   0.79517   0.89065   1.000
    C186    C    0.42365   0.15797   0.15782   1.000
    C187    C    0.57240   0.27067   0.27060   1.000
    C188    C    0.37930   0.47387   0.98269   1.000
    C189    C    0.46274   0.46280   0.99247   1.000
    C190    C    0.52630   0.62074   0.01727   1.000
    C191    C    0.60537   0.70145   0.03517   1.000
    C192    C    0.69677   0.69667   0.08384   1.000
    C193    C    0.29856   0.39491   0.96492   1.000
    C194    C    0.70855   0.70859   0.18188   1.000
    C195    C    0.77242   0.77220   0.08185   1.000
    C196    C    0.97235   0.47497   0.87783   1.000
    C197    C    0.96185   0.48755   0.96182   1.000
    C198    C    0.12216   0.52518   0.02771   1.000
    C199    C    0.20471   0.55563   0.10915   1.000
    C200    C    0.18532   0.52614   0.18528   1.000
    C201    C    0.89092   0.44440   0.79525   1.000
    C202    C    0.15768   0.42356   0.15744   1.000
    C203    C    0.27028   0.57240   0.27031   1.000
    C204    C    0.98268   0.37925   0.47362   1.000
    C205    C    0.99246   0.46269   0.46269   1.000
    C206    C    0.01735   0.52651   0.62079   1.000
    C207    C    0.03528   0.60572   0.70160   1.000
    C208    C    0.08396   0.69706   0.69692   1.000
    C209    C    0.96479   0.29836   0.39448   1.000
    C210    C    0.18193   0.70867   0.70857   1.000
    C211    C    0.08205   0.77287   0.77266   1.000
    C212    C    0.87787   0.97242   0.47489   1.000
    C213    C    0.96186   0.96189   0.48754   1.000
    C214    C    0.02766   0.12218   0.52506   1.000
    C215    C    0.10907   0.20471   0.55557   1.000
    C216    C    0.18527   0.18517   0.52609   1.000
    C217    C    0.79533   0.89102   0.44441   1.000
    C218    C    0.15761   0.15732   0.42349   1.000
    C219    C    0.27023   0.27016   0.57236   1.000
    C220    C    0.47374   0.98281   0.37929   1.000
    C221    C    0.46273   0.99250   0.46274   1.000
    C222    C    0.62076   0.01739   0.52628   1.000
    C223    C    0.70150   0.03515   0.60531   1.000
    C224    C    0.69674   0.08388   0.69680   1.000
    C225    C    0.39466   0.96486   0.29851   1.000
    C226    C    0.70845   0.18190   0.70870   1.000
    C227    C    0.77239   0.08190   0.77242   1.000
    C228    C    0.73588   0.26401   0.99991   1.000
    C229    C    0.49989   0.23373   0.76617   1.000
    C230    C    0.99993   0.73567   0.26422   1.000
    C231    C    0.76605   0.50008   0.23408   1.000
    C232    C    0.26411   0.00000   0.73587   1.000
    C233    C    0.23397   0.76582   0.49979   1.000
    C234    C    0.26415   0.73605   0.00010   1.000
    C235    C    0.50015   0.76634   0.23384   1.000
    C236    C    0.00008   0.26438   0.73577   1.000
    C237    C    0.23395   0.49997   0.76593   1.000
    C238    C    0.73592   0.00006   0.26412   1.000
    C239    C    0.76605   0.23425   0.50022   1.000
    C240    C    0.51352   0.12906   0.94711   1.000
    C241    C    0.48650   0.05286   0.87092   1.000
    C242    C    0.62872   0.44660   0.01130   1.000
    C243    C    0.55331   0.37125   0.98880   1.000
    C244    C    0.94699   0.51336   0.12911   1.000
    C245    C    0.87089   0.48642   0.05301   1.000
    C246    C    0.01133   0.62866   0.44679   1.000
    C247    C    0.98870   0.55312   0.37129   1.000
    C248    C    0.12910   0.94694   0.51350   1.000
    C249    C    0.05302   0.87088   0.48659   1.000
    C250    C    0.44666   0.01114   0.62869   1.000
    C251    C    0.37124   0.98857   0.55320   1.000
    C252    C    0.48651   0.87100   0.05289   1.000
    C253    C    0.51353   0.94720   0.12908   1.000
    C254    C    0.37130   0.55346   0.98862   1.000
    C255    C    0.44671   0.62881   0.01121   1.000
    C256    C    0.05303   0.48669   0.87090   1.000
    C257    C    0.12912   0.51363   0.94700   1.000
    C258    C    0.98868   0.37139   0.55321   1.000
    C259    C    0.01131   0.44693   0.62871   1.000
    C260    C    0.87092   0.05312   0.48649   1.000
    C261    C    0.94700   0.12917   0.51340   1.000
    C262    C    0.55336   0.98892   0.37131   1.000
    C263    C    0.62878   0.01149   0.44672   1.000
    O264    O    0.25739   0.64991   0.96906   1.000
    O265    O    0.53179   0.57900   0.01241   1.000
    O266    O    0.57900   0.53172   0.01242   1.000
    O267    O    0.50001   0.50003   0.00001   1.000
    O268    O    0.48651   0.62477   0.01424   1.000
    O269    O    0.44154   0.68919   0.03652   1.000
    O270    O    0.40901   0.59113   0.99992   1.000
    O271    O    0.62472   0.48639   0.01430   1.000
    O272    O    0.68905   0.44144   0.03666   1.000
    O273    O    0.59102   0.40892   0.00005   1.000
    O274    O    0.76933   0.76900   0.04712   1.000
    O275    O    0.56584   0.66110   0.02622   1.000
    O276    O    0.66109   0.56567   0.02620   1.000
    O277    O    0.08016   0.51884   0.03295   1.000
    O278    O    0.16344   0.54040   0.06843   1.000
    O279    O    0.12564   0.51941   0.98736   1.000
    O280    O    0.51886   0.08023   0.03303   1.000
    O281    O    0.54045   0.16355   0.06859   1.000
    O282    O    0.51935   0.12564   0.98747   1.000
    O283    O    0.39549   0.29587   0.99757   1.000
    O284    O    0.29583   0.39583   0.99769   1.000
    O285    O    0.73201   0.60162   0.05464   1.000
    O286    O    0.69912   0.65091   0.05947   1.000
    O287    O    0.70419   0.60422   0.00232   1.000
    O288    O    0.60185   0.73202   0.05479   1.000
    O289    O    0.65107   0.69906   0.05951   1.000
    O290    O    0.60453   0.70419   0.00243   1.000
    O291    O    0.03291   0.51879   0.08018   1.000
    O292    O    0.00001   0.50002   0.00000   1.000
    O293    O    0.51885   0.03306   0.08023   1.000
    O294    O    0.50001   0.00003   0.00000   1.000
    O295    O    0.46144   0.81028   0.05736   1.000
    O296    O    0.50002   0.90910   0.09099   1.000
    O297    O    0.48068   0.87442   0.01253   1.000
    O298    O    0.81014   0.46135   0.05751   1.000
    O299    O    0.90894   0.49989   0.09106   1.000
    O300    O    0.87437   0.48065   0.01266   1.000
    O301    O    0.74263   0.35015   0.03096   1.000
    O302    O    0.73460   0.73444   0.08285   1.000
    O303    O    0.77162   0.80516   0.09910   1.000
    O304    O    0.80534   0.77141   0.09914   1.000
    O305    O    0.70266   0.70263   0.13286   1.000
    O306    O    0.23013   0.54375   0.09973   1.000
    O307    O    0.54387   0.23031   0.10000   1.000
    O308    O    0.12725   0.40522   0.12701   1.000
    O309    O    0.40534   0.12753   0.12735   1.000
    O310    O    0.21961   0.59267   0.12108   1.000
    O311    O    0.19501   0.54089   0.14721   1.000
    O312    O    0.59275   0.21976   0.12126   1.000
    O313    O    0.54096   0.19524   0.14743   1.000
    O314    O    0.98733   0.51922   0.12565   1.000
    O315    O    0.06838   0.54036   0.16347   1.000
    O316    O    0.51935   0.98754   0.12565   1.000
    O317    O    0.54044   0.06864   0.16355   1.000
    O318    O    0.53863   0.94276   0.18984   1.000
    O319    O    0.94249   0.53841   0.18994   1.000
    O320    O    0.18476   0.41287   0.15081   1.000
    O321    O    0.41299   0.18506   0.15127   1.000
    O322    O    0.17150   0.47485   0.17136   1.000
    O323    O    0.15109   0.41292   0.18452   1.000
    O324    O    0.47493   0.17179   0.17166   1.000
    O325    O    0.41298   0.15139   0.18488   1.000
    O326    O    0.90074   0.22796   0.19440   1.000
    O327    O    0.22841   0.90083   0.19464   1.000
    O328    O    0.68220   0.68231   0.18454   1.000
    O329    O    0.74108   0.70706   0.19911   1.000
    O330    O    0.70712   0.74119   0.19917   1.000
    O331    O    0.14721   0.54090   0.19502   1.000
    O332    O    0.22780   0.54927   0.22780   1.000
    O333    O    0.54096   0.14751   0.19519   1.000
    O334    O    0.54930   0.22814   0.22805   1.000
    O335    O    0.12096   0.59269   0.21968   1.000
    O336    O    0.09973   0.54381   0.23013   1.000
    O337    O    0.59273   0.12129   0.21977   1.000
    O338    O    0.54385   0.10007   0.23029   1.000
    O339    O    0.29309   0.80088   0.25865   1.000
    O340    O    0.80081   0.29279   0.25887   1.000
    O341    O    0.90068   0.19428   0.22809   1.000
    O342    O    0.95268   0.23022   0.23040   1.000
    O343    O    0.91702   0.26509   0.26519   1.000
    O344    O    0.19471   0.90093   0.22834   1.000
    O345    O    0.23075   0.95287   0.23072   1.000
    O346    O    0.26545   0.91716   0.26539   1.000
    O347    O    0.53194   0.85233   0.24222   1.000
    O348    O    0.85203   0.53177   0.24243   1.000
    O349    O    0.94514   0.39784   0.26784   1.000
    O350    O    0.39822   0.94525   0.26797   1.000
    O351    O    0.64982   0.96919   0.25736   1.000
    O352    O    0.55854   0.96362   0.31095   1.000
    O353    O    0.96335   0.55829   0.31103   1.000
    O354    O    0.29814   0.56282   0.26436   1.000
    O355    O    0.56289   0.29854   0.26468   1.000
    O356    O    0.03096   0.74242   0.35033   1.000
    O357    O    0.28110   0.60912   0.28117   1.000
    O358    O    0.26433   0.56291   0.29816   1.000
    O359    O    0.60911   0.28146   0.28146   1.000
    O360    O    0.56283   0.26478   0.29845   1.000
    O361    O    0.25901   0.80090   0.29273   1.000
    O362    O    0.29742   0.86716   0.29725   1.000
    O363    O    0.31789   0.81551   0.31765   1.000
    O364    O    0.80085   0.25887   0.29293   1.000
    O365    O    0.86707   0.29718   0.29725   1.000
    O366    O    0.81547   0.31779   0.31778   1.000
    O367    O    0.99743   0.39513   0.29554   1.000
    O368    O    0.39548   0.99758   0.29577   1.000
    O369    O    0.94040   0.34867   0.30072   1.000
    O370    O    0.97370   0.43394   0.33879   1.000
    O371    O    0.34897   0.94052   0.30086   1.000
    O372    O    0.43420   0.97384   0.33890   1.000
    O373    O    0.94042   0.30067   0.34878   1.000
    O374    O    0.30090   0.94054   0.34895   1.000
    O375    O    0.71900   0.71899   0.39091   1.000
    O376    O    0.78042   0.87905   0.40736   1.000
    O377    O    0.87906   0.78037   0.40738   1.000
    O378    O    0.98568   0.51333   0.37525   1.000
    O379    O    0.00002   0.59089   0.40904   1.000
    O380    O    0.51355   0.98587   0.37530   1.000
    O381    O    0.59107   0.00021   0.40902   1.000
    O382    O    0.98756   0.46811   0.42095   1.000
    O383    O    0.46823   0.98765   0.42102   1.000
    O384    O    0.12721   0.12688   0.40515   1.000
    O385    O    0.99749   0.29554   0.39530   1.000
    O386    O    0.94522   0.26785   0.39801   1.000
    O387    O    0.97373   0.33880   0.43405   1.000
    O388    O    0.29576   0.99766   0.39561   1.000
    O389    O    0.26798   0.94535   0.39819   1.000
    O390    O    0.33889   0.97379   0.43421   1.000
    O391    O    0.18471   0.15071   0.41284   1.000
    O392    O    0.15098   0.18438   0.41284   1.000
    O393    O    0.17144   0.17125   0.47479   1.000
    O394    O    0.70191   0.73587   0.43714   1.000
    O395    O    0.73572   0.70205   0.43719   1.000
    O396    O    0.77227   0.77238   0.45077   1.000
    O397    O    0.03666   0.68892   0.44162   1.000
    O398    O    0.05751   0.81002   0.46152   1.000
    O399    O    0.14798   0.75750   0.46812   1.000
    O400    O    0.68908   0.03685   0.44159   1.000
    O401    O    0.81015   0.05766   0.46147   1.000
    O402    O    0.75772   0.14823   0.46834   1.000
    O403    O    0.76991   0.90045   0.45628   1.000
    O404    O    0.80504   0.85295   0.45916   1.000
    O405    O    0.83660   0.93172   0.45965   1.000
    O406    O    0.90034   0.76994   0.45628   1.000
    O407    O    0.85285   0.80511   0.45917   1.000
    O408    O    0.93165   0.83661   0.45969   1.000
    O409    O    0.62477   0.01444   0.48650   1.000
    O410    O    0.01433   0.62473   0.48659   1.000
    O411    O    0.98757   0.42097   0.46816   1.000
    O412    O    0.00001   0.50003   0.50000   1.000
    O413    O    0.42100   0.98759   0.46824   1.000
    O414    O    0.50001   0.00003   0.50000   1.000
    O415    O    0.98568   0.37532   0.51342   1.000
    O416    O    0.37525   0.98563   0.51347   1.000
    O417    O    0.82858   0.82880   0.52521   1.000
    O418    O    0.87439   0.01277   0.48069   1.000
    O419    O    0.91986   0.96715   0.48122   1.000
    O420    O    0.01269   0.87438   0.48077   1.000
    O421    O    0.96711   0.91988   0.48125   1.000
    O422    O    0.90896   0.09115   0.49995   1.000
    O423    O    0.09106   0.90891   0.50005   1.000
    O424    O    0.00001   0.00003   0.50000   1.000
    O425    O    0.03291   0.08018   0.51876   1.000
    O426    O    0.08015   0.03290   0.51878   1.000
    O427    O    0.98733   0.12568   0.51923   1.000
    O428    O    0.94251   0.19003   0.53848   1.000
    O429    O    0.12562   0.98728   0.51929   1.000
    O430    O    0.18987   0.94241   0.53854   1.000
    O431    O    0.06836   0.16345   0.54031   1.000
    O432    O    0.16342   0.06834   0.54004   1.000
    O433    O    0.19498   0.14711   0.54054   1.000
    O434    O    0.14717   0.19494   0.54083   1.000
    O435    O    0.22775   0.22767   0.54923   1.000
    O436    O    0.57902   0.01247   0.53177   1.000
    O437    O    0.66113   0.02627   0.56580   1.000
    O438    O    0.01245   0.57908   0.53185   1.000
    O439    O    0.02628   0.66125   0.56595   1.000
    O440    O    0.23010   0.09960   0.54343   1.000
    O441    O    0.09968   0.23011   0.54371   1.000
    O442    O    0.53178   0.01240   0.57898   1.000
    O443    O    0.01245   0.53194   0.57905   1.000
    O444    O    0.31094   0.96323   0.55839   1.000
    O445    O    0.40895   0.99986   0.59095   1.000
    O446    O    0.96335   0.31113   0.55839   1.000
    O447    O    1.00000   0.40916   0.59096   1.000
    O448    O    0.26429   0.29800   0.56280   1.000
    O449    O    0.29810   0.26418   0.56286   1.000
    O450    O    0.21960   0.12101   0.59235   1.000
    O451    O    0.12095   0.21968   0.59262   1.000
    O452    O    0.96905   0.25763   0.64967   1.000
    O453    O    0.28102   0.28107   0.60908   1.000
    O454    O    0.84904   0.81567   0.58715   1.000
    O455    O    0.81531   0.84934   0.58716   1.000
    O456    O    0.87281   0.87317   0.59485   1.000
    O457    O    0.73203   0.05471   0.60182   1.000
    O458    O    0.05480   0.73219   0.60199   1.000
    O459    O    0.70425   0.00240   0.60436   1.000
    O460    O    0.00252   0.70451   0.60470   1.000
    O461    O    0.69912   0.05951   0.65106   1.000
    O462    O    0.05960   0.69938   0.65122   1.000
    O463    O    0.48647   0.01420   0.62470   1.000
    O464    O    0.56582   0.02622   0.66110   1.000
    O465    O    0.01433   0.48672   0.62475   1.000
    O466    O    0.02631   0.56611   0.66119   1.000
    O467    O    0.44147   0.03644   0.68906   1.000
    O468    O    0.03666   0.44176   0.68897   1.000
    O469    O    0.18455   0.68226   0.68222   1.000
    O470    O    0.68213   0.18455   0.68236   1.000
    O471    O    0.43719   0.73527   0.70156   1.000
    O472    O    0.73569   0.43715   0.70185   1.000
    O473    O    0.65105   0.05953   0.69915   1.000
    O474    O    0.70260   0.13289   0.70275   1.000
    O475    O    0.73456   0.08289   0.73461   1.000
    O476    O    0.05962   0.65139   0.69926   1.000
    O477    O    0.13294   0.70286   0.70274   1.000
    O478    O    0.08300   0.73496   0.73479   1.000
    O479    O    0.60453   0.00247   0.70424   1.000
    O480    O    0.60180   0.05480   0.73204   1.000
    O481    O    0.00259   0.60492   0.70445   1.000
    O482    O    0.05488   0.60221   0.73214   1.000
    O483    O    0.19917   0.74118   0.70706   1.000
    O484    O    0.74101   0.19915   0.70728   1.000
    O485    O    0.39091   0.71859   0.71855   1.000
    O486    O    0.71891   0.39093   0.71884   1.000
    O487    O    0.19921   0.70726   0.74113   1.000
    O488    O    0.70693   0.19917   0.74125   1.000
    O489    O    0.43714   0.70151   0.73532   1.000
    O490    O    0.45072   0.77192   0.77194   1.000
    O491    O    0.70188   0.43723   0.73565   1.000
    O492    O    0.77222   0.45078   0.77222   1.000
    O493    O    0.35020   0.03087   0.74265   1.000
    O494    O    0.45617   0.89999   0.76970   1.000
    O495    O    0.90029   0.45624   0.76985   1.000
    O496    O    0.14799   0.46828   0.75758   1.000
    O497    O    0.05752   0.46164   0.81007   1.000
    O498    O    0.46139   0.05730   0.81017   1.000
    O499    O    0.40729   0.87877   0.78022   1.000
    O500    O    0.87906   0.40736   0.78030   1.000
    O501    O    0.76926   0.04718   0.76928   1.000
    O502    O    0.53177   0.24211   0.85218   1.000
    O503    O    0.04734   0.76984   0.76956   1.000
    O504    O    0.80531   0.09912   0.77161   1.000
    O505    O    0.09934   0.80577   0.77189   1.000
    O506    O    0.77160   0.09922   0.80537   1.000
    O507    O    0.09928   0.77209   0.80558   1.000
    O508    O    0.29290   0.25886   0.80084   1.000
    O509    O    0.25894   0.29299   0.80087   1.000
    O510    O    0.58704   0.84867   0.81511   1.000
    O511    O    0.84893   0.58713   0.81549   1.000
    O512    O    0.45907   0.85255   0.80479   1.000
    O513    O    0.45959   0.93142   0.83644   1.000
    O514    O    0.85281   0.45915   0.80499   1.000
    O515    O    0.93163   0.45969   0.83654   1.000
    O516    O    0.31782   0.31774   0.81547   1.000
    O517    O    0.52510   0.82827   0.82833   1.000
    O518    O    0.45906   0.80481   0.85256   1.000
    O519    O    0.82852   0.52520   0.82865   1.000
    O520    O    0.80500   0.45916   0.85279   1.000
    O521    O    0.29736   0.29742   0.86715   1.000
    O522    O    0.58703   0.81500   0.84874   1.000
    O523    O    0.59469   0.87253   0.87265   1.000
    O524    O    0.81526   0.58718   0.84919   1.000
    O525    O    0.87277   0.59483   0.87299   1.000
    O526    O    0.40728   0.78029   0.87875   1.000
    O527    O    0.78040   0.40738   0.87888   1.000
    O528    O    0.01269   0.48083   0.87437   1.000
    O529    O    0.09107   0.50016   0.90895   1.000
    O530    O    0.48068   0.01252   0.87435   1.000
    O531    O    0.50001   0.09096   0.90902   1.000
    O532    O    0.48118   0.96700   0.91978   1.000
    O533    O    0.96710   0.48126   0.91983   1.000
    O534    O    0.19469   0.22865   0.90087   1.000
    O535    O    0.22840   0.19490   0.90091   1.000
    O536    O    0.45616   0.76975   0.90001   1.000
    O537    O    0.45958   0.83650   0.93141   1.000
    O538    O    0.76989   0.45630   0.90028   1.000
    O539    O    0.83658   0.45966   0.93158   1.000
    O540    O    0.26543   0.26562   0.91716   1.000
    O541    O    0.34895   0.30099   0.94050   1.000
    O542    O    0.30090   0.34914   0.94054   1.000
    O543    O    0.23069   0.23106   0.95288   1.000
    O544    O    0.39818   0.26804   0.94522   1.000
    O545    O    0.26802   0.39844   0.94536   1.000
    O546    O    0.18988   0.53870   0.94251   1.000
    O547    O    0.31097   0.55861   0.96332   1.000
    O548    O    0.53858   0.18978   0.94265   1.000
    O549    O    0.55848   0.31087   0.96349   1.000
    O550    O    0.48117   0.91982   0.96697   1.000
    O551    O    0.91985   0.48122   0.96706   1.000
    O552    O    0.43418   0.33896   0.97379   1.000
    O553    O    0.33893   0.43439   0.97381   1.000
    O554    O    0.37530   0.51367   0.98566   1.000
    O555    O    0.42102   0.46834   0.98758   1.000
    O556    O    0.51352   0.37528   0.98577   1.000
    O557    O    0.46823   0.42106   0.98761   1.000
loop_
    _geom_bond_atom_site_label_1
    _geom_bond_atom_site_label_2
    _geom_bond_distance
    _geom_bond_site_symmetry_2
    _ccdc_geom_bond_type
    C234   O264      1.34356  1_554   S
    C7     O264      1.34356      .   S
    C141   O265      0.70739      .   S
    C190   O265      0.70739      .   S
    C141   O266      0.70740      .   S
    C140   O266      0.70740      .   S
    C141   O267      0.70213      .   S
    C189   O267      0.70213  1_556   S
    C255   O268      0.67009      .   S
    C190   O268      0.67009      .   S
    C255   O269      1.01163      .   S
    C6     O269      1.01163      .   S
    C255   O270      0.69516  1_554   S
    C254   O270      0.69516      .   S
    C242   O271      0.66994      .   S
    C140   O271      0.66994      .   S
    C242   O272      1.01182      .   S
    C1     O272      1.01182      .   S
    C242   O273      0.69531      .   S
    C243   O273      0.69531  1_556   S
    C89    O274      0.55061      .   S
    C195   O274      0.55061      .   S
    C190   O275      0.74899      .   S
    C191   O275      0.74899      .   S
    C140   O276      0.74890      .   S
    C145   O276      0.74890      .   S
    C198   O277      0.70763      .   S
    C149   O277      0.70763      .   S
    C198   O278      0.74723      .   S
    C199   O278      0.74723      .   S
    C198   O279      0.66988  1_554   S
    C257   O279      0.66988      .   S
    C132   O280      0.70765      .   S
    C133   O280      0.70765      .   S
    C132   O281      0.74722      .   S
    C137   O281      0.74722      .   S
    C132   O282      0.66986  1_554   S
    C240   O282      0.66986      .   S
    C22    O283      0.55311  1_554   S
    C143   O283      0.55311      .   S
    C85    O284      0.55327  1_554   S
    C193   O284      0.55327      .   S
    C145   O285      0.55045      .   S
    C24    O285      0.55045      .   S
    C145   O286      0.77406      .   S
    C192   O286      0.77406      .   S
    C145   O287      0.55331      .   S
    C25    O287      0.55331  1_556   S
    C191   O288      0.55048      .   S
    C83    O288      0.55048      .   S
    C191   O289      0.77413      .   S
    C192   O289      0.77413      .   S
    C191   O290      0.55326      .   S
    C82    O290      0.55326  1_556   S
    C149   O291      0.70771      .   S
    C148   O291      0.70771      .   S
    C149   O292      0.70032      .   S
    C197   O292      0.70032  1_656   S
    C133   O293      0.70763      .   S
    C182   O293      0.70763      .   S
    C133   O294      0.70046      .   S
    C181   O294      0.70046  1_566   S
    C252   O295      1.01236      .   S
    C6     O295      1.01236      .   S
    C252   O296      0.69521      .   S
    C253   O296      0.69521      .   S
    C252   O297      0.66987      .   S
    C180   O297      0.66987  1_556   S
    C245   O298      1.01272      .   S
    C1     O298      1.01272      .   S
    C245   O299      0.69515      .   S
    C244   O299      0.69515      .   S
    C245   O300      0.66989      .   S
    C150   O300      0.66989  1_556   S
    C1     O301      1.34350      .   S
    C228   O301      1.34350  1_556   S
    C195   O302      0.76649      .   S
    C192   O302      0.76649      .   S
    C195   O303      0.54977      .   S
    C90    O303      0.54977      .   S
    C195   O304      0.54976      .   S
    C91    O304      0.54976      .   S
    C192   O305      0.76736      .   S
    C194   O305      0.76736      .   S
    C92    O306      0.55016      .   S
    C199   O306      0.55016      .   S
    C15    O307      0.55019      .   S
    C137   O307      0.55019      .   S
    C97    O308      0.54963      .   S
    C202   O308      0.54963      .   S
    C77    O309      0.54964      .   S
    C186   O309      0.54964      .   S
    C199   O310      0.55262      .   S
    C93    O310      0.55262      .   S
    C199   O311      0.77400      .   S
    C200   O311      0.77400      .   S
    C137   O312      0.55256      .   S
    C14    O312      0.55256      .   S
    C137   O313      0.77372      .   S
    C184   O313      0.77372      .   S
    C148   O314      0.66939  1_455   S
    C244   O314      0.66939      .   S
    C148   O315      0.74715      .   S
    C153   O315      0.74715      .   S
    C182   O316      0.66958  1_545   S
    C253   O316      0.66958      .   S
    C182   O317      0.74723      .   S
    C183   O317      0.74723      .   S
    C253   O318      1.01259      .   S
    C11    O318      1.01259      .   S
    C244   O319      1.01275      .   S
    C2     O319      1.01275      .   S
    C98    O320      0.54994      .   S
    C202   O320      0.54994      .   S
    C76    O321      0.54994      .   S
    C186   O321      0.54994      .   S
    C202   O322      0.76912      .   S
    C200   O322      0.76912      .   S
    C202   O323      0.54997      .   S
    C96    O323      0.54997      .   S
    C186   O324      0.76916      .   S
    C184   O324      0.76916      .   S
    C186   O325      0.54992      .   S
    C78    O325      0.54992      .   S
    C50    O326      0.54944      .   S
    C163   O326      0.54944      .   S
    C71    O327      0.54974      .   S
    C179   O327      0.54974      .   S
    C194   O328      0.54932      .   S
    C87    O328      0.54932      .   S
    C194   O329      0.54932      .   S
    C88    O329      0.54932      .   S
    C194   O330      0.54932      .   S
    C86    O330      0.54932      .   S
    C200   O331      0.77392      .   S
    C153   O331      0.77392      .   S
    C200   O332      0.76617      .   S
    C203   O332      0.76617      .   S
    C184   O333      0.77407      .   S
    C183   O333      0.77407      .   S
    C184   O334      0.76631      .   S
    C187   O334      0.76631      .   S
    C153   O335      0.55256      .   S
    C34    O335      0.55256      .   S
    C153   O336      0.54972      .   S
    C35    O336      0.54972      .   S
    C183   O337      0.55257      .   S
    C73    O337      0.55257      .   S
    C183   O338      0.55014      .   S
    C72    O338      0.55014      .   S
    C68    O339      0.55068      .   S
    C178   O339      0.55068      .   S
    C46    O340      0.54932      .   S
    C162   O340      0.54932      .   S
    C163   O341      0.54993      .   S
    C51    O341      0.54993      .   S
    C163   O342      0.55063      .   S
    C49    O342      0.55063      .   S
    C163   O343      0.76678      .   S
    C160   O343      0.76678      .   S
    C179   O344      0.54951      .   S
    C70    O344      0.54951      .   S
    C179   O345      0.55062      .   S
    C69    O345      0.55062      .   S
    C179   O346      0.76652      .   S
    C176   O346      0.76652      .   S
    C235   O347      1.33560      .   S
    C11    O347      1.33560      .   S
    C231   O348      1.33516      .   S
    C2     O348      1.33516      .   S
    C43    O349      0.55051      .   S
    C159   O349      0.55051      .   S
    C124   O350      0.55043      .   S
    C225   O350      0.55043      .   S
    C11    O351      1.34360      .   S
    C238   O351      1.34360  1_545   S
    C11    O352      1.01159      .   S
    C262   O352      1.01159      .   S
    C2     O353      1.01138      .   S
    C247   O353      1.01138      .   S
    C99    O354      0.54988      .   S
    C203   O354      0.54988      .   S
    C81    O355      0.54985      .   S
    C187   O355      0.54985      .   S
    C230   O356      1.34418  1_655   S
    C3     O356      1.34418      .   S
    C203   O357      0.54867      .   S
    C100   O357      0.54867      .   S
    C203   O358      0.54984      .   S
    C101   O358      0.54984      .   S
    C187   O359      0.54867      .   S
    C80    O359      0.54867      .   S
    C187   O360      0.54990      .   S
    C79    O360      0.54990      .   S
    C178   O361      0.54938      .   S
    C66    O361      0.54938      .   S
    C178   O362      0.76729      .   S
    C176   O362      0.76729      .   S
    C178   O363      0.54934      .   S
    C67    O363      0.54934      .   S
    C162   O364      0.54937      .   S
    C48    O364      0.54937      .   S
    C162   O365      0.76730      .   S
    C160   O365      0.76730      .   S
    C162   O366      0.54935      .   S
    C47    O366      0.54935      .   S
    C42    O367      0.55284  1_455   S
    C159   O367      0.55284      .   S
    C125   O368      0.55297  1_545   S
    C225   O368      0.55297      .   S
    C159   O369      0.77414      .   S
    C160   O369      0.77414      .   S
    C159   O370      0.74896      .   S
    C158   O370      0.74896      .   S
    C225   O371      0.77413      .   S
    C176   O371      0.77413      .   S
    C225   O372      0.74895      .   S
    C220   O372      0.74895      .   S
    C160   O373      0.77409      .   S
    C209   O373      0.77409      .   S
    C176   O374      0.77411      .   S
    C175   O374      0.77411      .   S
    C60    O375      0.54865      .   S
    C171   O375      0.54865      .   S
    C114   O376      0.55268      .   S
    C217   O376      0.55268      .   S
    C53    O377      0.55253      .   S
    C167   O377      0.55253      .   S
    C247   O378      0.67007      .   S
    C158   O378      0.67007      .   S
    C247   O379      0.69535  1_655   S
    C246   O379      0.69535      .   S
    C262   O380      0.67007      .   S
    C220   O380      0.67007      .   S
    C262   O381      0.69529  1_565   S
    C263   O381      0.69529      .   S
    C158   O382      0.70744      .   S
    C205   O382      0.70744      .   S
    C220   O383      0.70739      .   S
    C221   O383      0.70739      .   S
    C117   O384      0.54963      .   S
    C218   O384      0.54963      .   S
    C209   O385      0.55282      .   S
    C105   O385      0.55282  1_455   S
    C209   O386      0.55045      .   S
    C104   O386      0.55045      .   S
    C209   O387      0.74897      .   S
    C204   O387      0.74897      .   S
    C175   O388      0.55299      .   S
    C62    O388      0.55299  1_545   S
    C175   O389      0.55044      .   S
    C63    O389      0.55044      .   S
    C175   O390      0.74897      .   S
    C174   O390      0.74897      .   S
    C116   O391      0.54993      .   S
    C218   O391      0.54993      .   S
    C118   O392      0.54994      .   S
    C218   O392      0.54994      .   S
    C218   O393      0.76915      .   S
    C216   O393      0.76915      .   S
    C171   O394      0.54988      .   S
    C61    O394      0.54988      .   S
    C171   O395      0.54987      .   S
    C59    O395      0.54987      .   S
    C171   O396      0.76616      .   S
    C168   O396      0.76616      .   S
    C3     O397      1.01154      .   S
    C246   O397      1.01154      .   S
    C3     O398      1.01297      .   S
    C249   O398      1.01297      .   S
    C3     O399      1.33514      .   S
    C233   O399      1.33514      .   S
    C10    O400      1.01161      .   S
    C263   O400      1.01161      .   S
    C10    O401      1.01275      .   S
    C260   O401      1.01275      .   S
    C10    O402      1.33508      .   S
    C239   O402      1.33508      .   S
    C217   O403      0.55017      .   S
    C115   O403      0.55017      .   S
    C217   O404      0.77398      .   S
    C168   O404      0.77398      .   S
    C217   O405      0.74722      .   S
    C212   O405      0.74722      .   S
    C167   O406      0.55021      .   S
    C52    O406      0.55021      .   S
    C167   O407      0.77395      .   S
    C168   O407      0.77395      .   S
    C167   O408      0.74717      .   S
    C166   O408      0.74717      .   S
    C263   O409      0.67010      .   S
    C222   O409      0.67010      .   S
    C246   O410      0.67000      .   S
    C156   O410      0.67000      .   S
    C205   O411      0.70740      .   S
    C204   O411      0.70740      .   S
    C205   O412      0.70230  1_655   S
    C157   O412      0.70230      .   S
    C221   O413      0.70742      .   S
    C174   O413      0.70742      .   S
    C221   O414      0.70229  1_565   S
    C173   O414      0.70229      .   S
    C204   O415      0.67001      .   S
    C258   O415      0.67001      .   S
    C174   O416      0.66935      .   S
    C251   O416      0.66935      .   S
    C168   O417      0.76907      .   S
    C170   O417      0.76907      .   S
    C212   O418      0.66959  1_565   S
    C260   O418      0.66959      .   S
    C212   O419      0.70766      .   S
    C213   O419      0.70766      .   S
    C166   O420      0.66940  1_655   S
    C249   O420      0.66940      .   S
    C166   O421      0.70767      .   S
    C213   O421      0.70767      .   S
    C260   O422      0.69514      .   S
    C261   O422      0.69514      .   S
    C249   O423      0.69514      .   S
    C248   O423      0.69514      .   S
    C213   O424      0.70018  1_665   S
    C165   O424      0.70018      .   S
    C165   O425      0.70766      .   S
    C214   O425      0.70766      .   S
    C165   O426      0.70766      .   S
    C164   O426      0.70766      .   S
    C261   O427      0.66941      .   S
    C214   O427      0.66941  1_455   S
    C261   O428      1.01296      .   S
    C9     O428      1.01296      .   S
    C248   O429      0.66959      .   S
    C164   O429      0.66959  1_545   S
    C248   O430      1.01275      .   S
    C4     O430      1.01275      .   S
    C214   O431      0.74718      .   S
    C215   O431      0.74718      .   S
    C164   O432      0.74797      .   S
    C169   O432      0.74797      .   S
    C216   O433      0.77162      .   S
    C169   O433      0.77162      .   S
    C216   O434      0.77393      .   S
    C215   O434      0.77393      .   S
    C216   O435      0.76616      .   S
    C219   O435      0.76616      .   S
    C222   O436      0.70738      .   S
    C173   O436      0.70738      .   S
    C222   O437      0.74894      .   S
    C223   O437      0.74894      .   S
    C156   O438      0.70741      .   S
    C157   O438      0.70741      .   S
    C156   O439      0.74896      .   S
    C161   O439      0.74896      .   S
    C55    O440      0.54782      .   S
    C169   O440      0.54782      .   S
    C112   O441      0.55020      .   S
    C215   O441      0.55020      .   S
    C173   O442      0.70737      .   S
    C172   O442      0.70737      .   S
    C157   O443      0.70744      .   S
    C206   O443      0.70744      .   S
    C251   O444      1.01194      .   S
    C4     O444      1.01194      .   S
    C251   O445      0.69569      .   S
    C250   O445      0.69569  1_545   S
    C258   O446      1.01153      .   S
    C9     O446      1.01153      .   S
    C258   O447      0.69535      .   S
    C259   O447      0.69535  1_455   S
    C119   O448      0.54987      .   S
    C219   O448      0.54987      .   S
    C121   O449      0.54986      .   S
    C219   O449      0.54986      .   S
    C169   O450      0.55699      .   S
    C54    O450      0.55699      .   S
    C215   O451      0.55261      .   S
    C113   O451      0.55261      .   S
    C9     O452      1.34411      .   S
    C236   O452      1.34411  1_455   S
    C219   O453      0.54865      .   S
    C120   O453      0.54865      .   S
    C170   O454      0.54995      .   S
    C58    O454      0.54995      .   S
    C170   O455      0.54997      .   S
    C56    O455      0.54997      .   S
    C170   O456      0.54964      .   S
    C57    O456      0.54964      .   S
    C123   O457      0.55045      .   S
    C223   O457      0.55045      .   S
    C44    O458      0.55048      .   S
    C161   O458      0.55048      .   S
    C122   O459      0.55284  1_565   S
    C223   O459      0.55284      .   S
    C45    O460      0.55281  1_655   S
    C161   O460      0.55281      .   S
    C223   O461      0.77411      .   S
    C224   O461      0.77411      .   S
    C161   O462      0.77410      .   S
    C208   O462      0.77410      .   S
    C172   O463      0.67004      .   S
    C250   O463      0.67004      .   S
    C172   O464      0.74897      .   S
    C177   O464      0.74897      .   S
    C206   O465      0.67008      .   S
    C259   O465      0.67008      .   S
    C206   O466      0.74876      .   S
    C207   O466      0.74876      .   S
    C250   O467      1.01168      .   S
    C5     O467      1.01168      .   S
    C259   O468      1.01135      .   S
    C8     O468      1.01135      .   S
    C107   O469      0.54934      .   S
    C210   O469      0.54934      .   S
    C127   O470      0.54930      .   S
    C226   O470      0.54930      .   S
    C19    O471      0.54989      .   S
    C139   O471      0.54989      .   S
    C41    O472      0.54991      .   S
    C155   O472      0.54991      .   S
    C224   O473      0.77414      .   S
    C177   O473      0.77414      .   S
    C224   O474      0.76730      .   S
    C226   O474      0.76730      .   S
    C224   O475      0.76654      .   S
    C227   O475      0.76654      .   S
    C208   O476      0.77398      .   S
    C207   O476      0.77398      .   S
    C208   O477      0.76731      .   S
    C210   O477      0.76731      .   S
    C208   O478      0.76656      .   S
    C211   O478      0.76656      .   S
    C177   O479      0.55297      .   S
    C65    O479      0.55297  1_565   S
    C177   O480      0.55043      .   S
    C64    O480      0.55043      .   S
    C207   O481      0.55295      .   S
    C102   O481      0.55295  1_655   S
    C207   O482      0.55079      .   S
    C103   O482      0.55079      .   S
    C108   O483      0.54932      .   S
    C210   O483      0.54932      .   S
    C126   O484      0.54935      .   S
    C226   O484      0.54935      .   S
    C20    O485      0.54867      .   S
    C139   O485      0.54867      .   S
    C40    O486      0.54866      .   S
    C155   O486      0.54866      .   S
    C210   O487      0.54932      .   S
    C106   O487      0.54932      .   S
    C226   O488      0.54934      .   S
    C128   O488      0.54934      .   S
    C139   O489      0.54985      .   S
    C21    O489      0.54985      .   S
    C139   O490      0.76617      .   S
    C136   O490      0.76617      .   S
    C155   O491      0.54987      .   S
    C39    O491      0.54987      .   S
    C155   O492      0.76616      .   S
    C152   O492      0.76616      .   S
    C232   O493      1.34346      .   S
    C5     O493      1.34346      .   S
    C12    O494      0.54990      .   S
    C135   O494      0.54990      .   S
    C95    O495      0.55018      .   S
    C201   O495      0.55018      .   S
    C8     O496      1.33506      .   S
    C237   O496      1.33506      .   S
    C8     O497      1.01282      .   S
    C256   O497      1.01282      .   S
    C5     O498      1.01253      .   S
    C241   O498      1.01253      .   S
    C13    O499      0.55256      .   S
    C135   O499      0.55256      .   S
    C94    O500      0.55258      .   S
    C201   O500      0.55258      .   S
    C129   O501      0.55061      .   S
    C227   O501      0.55061      .   S
    C229   O502      1.33573      .   S
    C0     O502      1.33573      .   S
    C109   O503      0.55062      .   S
    C211   O503      0.55062      .   S
    C130   O504      0.54986      .   S
    C227   O504      0.54986      .   S
    C111   O505      0.54978      .   S
    C211   O505      0.54978      .   S
    C227   O506      0.54973      .   S
    C131   O506      0.54973      .   S
    C211   O507      0.54972      .   S
    C110   O507      0.54972      .   S
    C26    O508      0.54935      .   S
    C146   O508      0.54935      .   S
    C28    O509      0.54950      .   S
    C146   O509      0.54950      .   S
    C18    O510      0.54999      .   S
    C138   O510      0.54999      .   S
    C36    O511      0.54996      .   S
    C154   O511      0.54996      .   S
    C135   O512      0.77408      .   S
    C136   O512      0.77408      .   S
    C135   O513      0.74738      .   S
    C134   O513      0.74738      .   S
    C201   O514      0.77393      .   S
    C152   O514      0.77393      .   S
    C201   O515      0.74719      .   S
    C196   O515      0.74719      .   S
    C27    O516      0.54935      .   S
    C146   O516      0.54935      .   S
    C136   O517      0.76914      .   S
    C138   O517      0.76914      .   S
    C136   O518      0.77395      .   S
    C185   O518      0.77395      .   S
    C152   O519      0.76914      .   S
    C154   O519      0.76914      .   S
    C152   O520      0.77395      .   S
    C151   O520      0.77395      .   S
    C146   O521      0.76727      .   S
    C144   O521      0.76727      .   S
    C138   O522      0.54995      .   S
    C16    O522      0.54995      .   S
    C138   O523      0.54964      .   S
    C17    O523      0.54964      .   S
    C154   O524      0.54994      .   S
    C38    O524      0.54994      .   S
    C154   O525      0.54963      .   S
    C37    O525      0.54963      .   S
    C74    O526      0.55256      .   S
    C185   O526      0.55256      .   S
    C33    O527      0.55256      .   S
    C151   O527      0.55256      .   S
    C256   O528      0.66941      .   S
    C196   O528      0.66941  1_655   S
    C256   O529      0.69515      .   S
    C257   O529      0.69515      .   S
    C241   O530      0.66958      .   S
    C134   O530      0.66958  1_565   S
    C241   O531      0.69520      .   S
    C240   O531      0.69520      .   S
    C134   O532      0.70764      .   S
    C181   O532      0.70764      .   S
    C196   O533      0.70763      .   S
    C197   O533      0.70763      .   S
    C31    O534      0.54976      .   S
    C147   O534      0.54976      .   S
    C30    O535      0.54975      .   S
    C147   O535      0.54975      .   S
    C185   O536      0.55019      .   S
    C75    O536      0.55019      .   S
    C185   O537      0.74722      .   S
    C180   O537      0.74722      .   S
    C151   O538      0.55016      .   S
    C32    O538      0.55016      .   S
    C151   O539      0.74726      .   S
    C150   O539      0.74726      .   S
    C144   O540      0.76649      .   S
    C147   O540      0.76649      .   S
    C144   O541      0.77414      .   S
    C143   O541      0.77414      .   S
    C144   O542      0.77409      .   S
    C193   O542      0.77409      .   S
    C147   O543      0.55061      .   S
    C29    O543      0.55061      .   S
    C23    O544      0.55048      .   S
    C143   O544      0.55048      .   S
    C84    O545      0.55049      .   S
    C193   O545      0.55049      .   S
    C7     O546      1.01270      .   S
    C257   O546      1.01270      .   S
    C7     O547      1.01167      .   S
    C254   O547      1.01167      .   S
    C0     O548      1.01236      .   S
    C240   O548      1.01236      .   S
    C0     O549      1.01158      .   S
    C243   O549      1.01158      .   S
    C181   O550      0.70764      .   S
    C180   O550      0.70764      .   S
    C197   O551      0.70767      .   S
    C150   O551      0.70767      .   S
    C143   O552      0.74898      .   S
    C142   O552      0.74898      .   S
    C193   O553      0.74893      .   S
    C188   O553      0.74893      .   S
    C188   O554      0.67006      .   S
    C254   O554      0.67006      .   S
    C188   O555      0.70738      .   S
    C189   O555      0.70738      .   S
    C142   O556      0.67008      .   S
    C243   O556      0.67008      .   S
    C142   O557      0.70738      .   S
    C189   O557      0.70738      .   S
