# CIF file generated by openbabel 2.4.90, see http://openbabel.sf.net
data_I
_chemical_name_common 'VESTA_phase_1'
_cell_length_a 23.83
_cell_length_b 23.831
_cell_length_c 15.27
_cell_angle_alpha 109.83
_cell_angle_beta 109.896
_cell_angle_gamma 97.193
_space_group_name_H-M_alt 'P 1'
_space_group_name_Hall 'P 1'
loop_
    _symmetry_equiv_pos_as_xyz
    x,y,z
loop_
    _atom_site_label
    _atom_site_type_symbol
    _atom_site_fract_x
    _atom_site_fract_y
    _atom_site_fract_z
    _atom_site_occupancy
    Cd0     Cd   0.39092   0.01033   0.78210   1.000
    Cd1     Cd   0.39091   0.51043   0.78217   1.000
    Cd2     Cd   0.89080   0.01035   0.78212   1.000
    Cd3     Cd   0.89074   0.51030   0.78199   1.000
    Cd4     Cd   0.48991   0.10924   0.71805   1.000
    Cd5     Cd   0.49002   0.60912   0.71809   1.000
    Cd6     Cd   0.98982   0.10929   0.71796   1.000
    Cd7     Cd   0.98982   0.60911   0.71797   1.000
    Cd8     Cd   0.10922   0.48968   0.21800   1.000
    Cd9     Cd   0.10916   0.98963   0.21789   1.000
    Cd10    Cd   0.60905   0.48955   0.21784   1.000
    Cd11    Cd   0.60904   0.98965   0.21791   1.000
    Cd12    Cd   0.01014   0.39087   0.28204   1.000
    Cd13    Cd   0.01014   0.89069   0.28205   1.000
    Cd14    Cd   0.50994   0.39085   0.28192   1.000
    Cd15    Cd   0.51005   0.89074   0.28196   1.000
    H16     H    0.40142   0.13137   0.81594   1.000
    H17     H    0.40147   0.63144   0.81601   1.000
    H18     H    0.90123   0.13137   0.81580   1.000
    H19     H    0.90122   0.63134   0.81584   1.000
    H20     H    0.05886   0.01277   0.01630   1.000
    H21     H    0.05880   0.51280   0.01647   1.000
    H22     H    0.55882   0.01281   0.01647   1.000
    H23     H    0.55883   0.51280   0.01639   1.000
    H24     H    0.09424   0.20767   0.08040   1.000
    H25     H    0.09418   0.70769   0.08047   1.000
    H26     H    0.59437   0.20771   0.08050   1.000
    H27     H    0.59449   0.70773   0.08062   1.000
    H28     H    0.14653   0.14017   0.31892   1.000
    H29     H    0.14652   0.64021   0.31901   1.000
    H30     H    0.64643   0.14020   0.31904   1.000
    H31     H    0.64641   0.64010   0.31902   1.000
    H32     H    0.44956   0.26521   0.07818   1.000
    H33     H    0.44953   0.76509   0.07818   1.000
    H34     H    0.94953   0.26523   0.07813   1.000
    H35     H    0.94946   0.76507   0.07806   1.000
    H36     H    0.44694   0.10068   0.13718   1.000
    H37     H    0.44695   0.60059   0.13730   1.000
    H38     H    0.94672   0.10065   0.13702   1.000
    H39     H    0.94666   0.60050   0.13699   1.000
    H40     H    0.02142   0.28582   0.37949   1.000
    H41     H    0.02140   0.78568   0.37943   1.000
    H42     H    0.52126   0.28587   0.37959   1.000
    H43     H    0.52137   0.78581   0.37962   1.000
    H44     H    0.36885   0.09892   0.68427   1.000
    H45     H    0.36900   0.59915   0.68435   1.000
    H46     H    0.86874   0.09891   0.68420   1.000
    H47     H    0.86876   0.59897   0.68421   1.000
    H48     H    0.48713   0.44126   0.48363   1.000
    H49     H    0.48715   0.94122   0.48360   1.000
    H50     H    0.98714   0.44124   0.48346   1.000
    H51     H    0.98717   0.94115   0.48357   1.000
    H52     H    0.29220   0.40585   0.41980   1.000
    H53     H    0.29221   0.90580   0.41969   1.000
    H54     H    0.79223   0.40570   0.41968   1.000
    H55     H    0.79224   0.90582   0.41977   1.000
    H56     H    0.35946   0.35342   0.18116   1.000
    H57     H    0.35952   0.85338   0.18113   1.000
    H58     H    0.85944   0.35336   0.18100   1.000
    H59     H    0.85946   0.85327   0.18110   1.000
    H60     H    0.23486   0.05039   0.42190   1.000
    H61     H    0.23494   0.55049   0.42192   1.000
    H62     H    0.73479   0.05035   0.42180   1.000
    H63     H    0.73479   0.55025   0.42177   1.000
    H64     H    0.39946   0.05340   0.36314   1.000
    H65     H    0.39947   0.55328   0.36299   1.000
    H66     H    0.89938   0.05338   0.36302   1.000
    H67     H    0.89935   0.55320   0.36291   1.000
    H68     H    0.21413   0.47842   0.12054   1.000
    H69     H    0.21416   0.97837   0.12058   1.000
    H70     H    0.71403   0.47829   0.12042   1.000
    H71     H    0.71407   0.97830   0.12047   1.000
    H72     H    0.09874   0.36864   0.18417   1.000
    H73     H    0.09873   0.86861   0.18421   1.000
    H74     H    0.59848   0.36853   0.18400   1.000
    H75     H    0.59853   0.86860   0.18400   1.000
    H76     H    0.44113   0.48718   0.98363   1.000
    H77     H    0.44114   0.98717   0.98354   1.000
    H78     H    0.94117   0.48719   0.98354   1.000
    H79     H    0.94109   0.98721   0.98364   1.000
    H80     H    0.40546   0.29224   0.91939   1.000
    H81     H    0.40558   0.79227   0.91951   1.000
    H82     H    0.90578   0.29229   0.91950   1.000
    H83     H    0.90572   0.79231   0.91961   1.000
    H84     H    0.35355   0.35988   0.68100   1.000
    H85     H    0.35353   0.85978   0.68097   1.000
    H86     H    0.85344   0.35977   0.68100   1.000
    H87     H    0.85343   0.85981   0.68109   1.000
    H88     H    0.05050   0.23491   0.92196   1.000
    H89     H    0.05043   0.73474   0.92188   1.000
    H90     H    0.55043   0.23489   0.92183   1.000
    H91     H    0.55039   0.73476   0.92183   1.000
    H92     H    0.05330   0.39948   0.86302   1.000
    H93     H    0.05324   0.89933   0.86300   1.000
    H94     H    0.55301   0.39939   0.86271   1.000
    H95     H    0.55302   0.89930   0.86283   1.000
    H96     H    0.47859   0.21416   0.62039   1.000
    H97     H    0.47870   0.71411   0.62042   1.000
    H98     H    0.97856   0.21430   0.62058   1.000
    H99     H    0.97854   0.71416   0.62052   1.000
    H100    H    0.13120   0.40101   0.31580   1.000
    H101    H    0.13121   0.90107   0.31581   1.000
    H102    H    0.63096   0.40082   0.31560   1.000
    H103    H    0.63111   0.90106   0.31574   1.000
    H104    H    0.01279   0.05882   0.51644   1.000
    H105    H    0.01282   0.55874   0.51655   1.000
    H106    H    0.51281   0.05876   0.51637   1.000
    H107    H    0.51283   0.55871   0.51639   1.000
    H108    H    0.20771   0.09416   0.58024   1.000
    H109    H    0.20774   0.59428   0.58033   1.000
    H110    H    0.70775   0.09418   0.58032   1.000
    H111    H    0.70775   0.59412   0.58022   1.000
    H112    H    0.14049   0.14671   0.81889   1.000
    H113    H    0.14052   0.64662   0.81901   1.000
    H114    H    0.64043   0.14659   0.81888   1.000
    H115    H    0.64050   0.64656   0.81885   1.000
    H116    H    0.26517   0.44972   0.57823   1.000
    H117    H    0.26517   0.94963   0.57820   1.000
    H118    H    0.76503   0.44949   0.57809   1.000
    H119    H    0.76510   0.94960   0.57811   1.000
    H120    H    0.10061   0.44678   0.63710   1.000
    H121    H    0.10058   0.94660   0.63700   1.000
    H122    H    0.60049   0.44669   0.63700   1.000
    H123    H    0.60050   0.94659   0.63687   1.000
    H124    H    0.28589   0.02167   0.87953   1.000
    H125    H    0.28593   0.52168   0.87959   1.000
    H126    H    0.78580   0.02161   0.87943   1.000
    H127    H    0.78583   0.52156   0.87947   1.000
    C128    C    0.07748   0.06135   0.06952   1.000
    C129    C    0.07741   0.56138   0.06961   1.000
    C130    C    0.57746   0.06139   0.06960   1.000
    C131    C    0.57747   0.56137   0.06958   1.000
    C132    C    0.07283   0.10825   0.03414   1.000
    C133    C    0.07276   0.60828   0.03424   1.000
    C134    C    0.57290   0.10828   0.03424   1.000
    C135    C    0.57299   0.60831   0.03427   1.000
    C136    C    0.09714   0.17001   0.10549   1.000
    C137    C    0.09708   0.67004   0.10558   1.000
    C138    C    0.59722   0.17004   0.10560   1.000
    C139    C    0.59730   0.67005   0.10568   1.000
    C140    C    0.12332   0.18172   0.20889   1.000
    C141    C    0.12329   0.68176   0.20898   1.000
    C142    C    0.62333   0.18175   0.20900   1.000
    C143    C    0.62336   0.68171   0.20907   1.000
    C144    C    0.12667   0.13262   0.23881   1.000
    C145    C    0.12663   0.63266   0.23800   1.000
    C146    C    0.62660   0.13266   0.23893   1.000
    C147    C    0.62659   0.63259   0.23892   1.000
    C148    C    0.03832   0.09094   0.92112   1.000
    C149    C    0.03826   0.59100   0.92120   1.000
    C150    C    0.53850   0.09098   0.92120   1.000
    C151    C    0.53867   0.59109   0.92125   1.000
    C152    C    0.45898   0.24254   0.13054   1.000
    C153    C    0.45897   0.74242   0.13056   1.000
    C154    C    0.95893   0.24254   0.13045   1.000
    C155    C    0.95887   0.74238   0.13030   1.000
    C156    C    0.44415   0.17792   0.09355   1.000
    C157    C    0.44412   0.67781   0.09361   1.000
    C158    C    0.94398   0.17792   0.09343   1.000
    C159    C    0.94390   0.67775   0.09338   1.000
    C160    C    0.45755   0.15089   0.16380   1.000
    C161    C    0.45756   0.65080   0.16394   1.000
    C162    C    0.95741   0.15087   0.16371   1.000
    C163    C    0.95735   0.65072   0.16367   1.000
    C164    C    0.48519   0.18996   0.26740   1.000
    C165    C    0.48524   0.68989   0.26749   1.000
    C166    C    0.98517   0.18993   0.26727   1.000
    C167    C    0.98511   0.68978   0.26723   1.000
    C168    C    0.99889   0.25412   0.29903   1.000
    C169    C    0.99885   0.75397   0.29897   1.000
    C170    C    0.49880   0.25416   0.29913   1.000
    C171    C    0.49887   0.75408   0.29910   1.000
    C172    C    0.41669   0.13932   0.97900   1.000
    C173    C    0.41663   0.63916   0.97957   1.000
    C174    C    0.91636   0.13931   0.97936   1.000
    C175    C    0.91628   0.63912   0.97931   1.000
    C176    C    0.43851   0.42263   0.43050   1.000
    C177    C    0.43853   0.92258   0.43051   1.000
    C178    C    0.93852   0.42257   0.43036   1.000
    C179    C    0.93854   0.92251   0.43040   1.000
    C180    C    0.39165   0.42728   0.46595   1.000
    C181    C    0.39166   0.92725   0.46589   1.000
    C182    C    0.89167   0.42720   0.46581   1.000
    C183    C    0.89169   0.92723   0.46592   1.000
    C184    C    0.32983   0.40293   0.39465   1.000
    C185    C    0.32985   0.90289   0.39457   1.000
    C186    C    0.82985   0.40282   0.39452   1.000
    C187    C    0.82987   0.90288   0.39463   1.000
    C188    C    0.31802   0.37669   0.29125   1.000
    C189    C    0.31806   0.87664   0.29117   1.000
    C190    C    0.81803   0.37659   0.29111   1.000
    C191    C    0.81805   0.87661   0.29122   1.000
    C192    C    0.36707   0.37333   0.26128   1.000
    C193    C    0.36713   0.87329   0.26124   1.000
    C194    C    0.86708   0.37327   0.26112   1.000
    C195    C    0.86710   0.87320   0.26124   1.000
    C196    C    0.40905   0.46182   0.57890   1.000
    C197    C    0.40901   0.96178   0.57888   1.000
    C198    C    0.90909   0.46174   0.57884   1.000
    C199    C    0.90911   0.96181   0.57894   1.000
    C200    C    0.25755   0.04100   0.36961   1.000
    C201    C    0.25760   0.54105   0.36959   1.000
    C202    C    0.75746   0.04096   0.36950   1.000
    C203    C    0.75745   0.54085   0.36945   1.000
    C204    C    0.32220   0.05605   0.40666   1.000
    C205    C    0.32224   0.55604   0.40659   1.000
    C206    C    0.82211   0.05603   0.40650   1.000
    C207    C    0.82210   0.55588   0.40647   1.000
    C208    C    0.34922   0.04263   0.33641   1.000
    C209    C    0.34923   0.54257   0.33630   1.000
    C210    C    0.84913   0.04260   0.33630   1.000
    C211    C    0.84911   0.54246   0.33621   1.000
    C212    C    0.31012   0.01479   0.23284   1.000
    C213    C    0.31011   0.51478   0.23274   1.000
    C214    C    0.81003   0.01474   0.23273   1.000
    C215    C    0.81000   0.51466   0.23265   1.000
    C216    C    0.24589   0.50101   0.20100   1.000
    C217    C    0.24590   0.00000   0.20104   1.000
    C218    C    0.74578   0.50087   0.20088   1.000
    C219    C    0.74580   0.00000   0.20094   1.000
    C220    C    0.36090   0.08376   0.52075   1.000
    C221    C    0.36098   0.58370   0.52067   1.000
    C222    C    0.86078   0.08375   0.52060   1.000
    C223    C    0.86078   0.58356   0.52050   1.000
    C224    C    0.42249   0.43861   0.93043   1.000
    C225    C    0.42250   0.93859   0.93039   1.000
    C226    C    0.92256   0.43860   0.93040   1.000
    C227    C    0.92248   0.93862   0.93049   1.000
    C228    C    0.42697   0.39167   0.96574   1.000
    C229    C    0.42706   0.89169   0.96577   1.000
    C230    C    0.92720   0.39171   0.96577   1.000
    C231    C    0.92713   0.89173   0.96587   1.000
    C232    C    0.40266   0.32993   0.89434   1.000
    C233    C    0.40274   0.82993   0.89441   1.000
    C234    C    0.90288   0.32994   0.89443   1.000
    C235    C    0.90282   0.82997   0.89452   1.000
    C236    C    0.37660   0.31826   0.79095   1.000
    C237    C    0.37663   0.81822   0.79101   1.000
    C238    C    0.87667   0.31822   0.79103   1.000
    C239    C    0.87664   0.81825   0.79111   1.000
    C240    C    0.37336   0.36739   0.76110   1.000
    C241    C    0.37336   0.86732   0.76108   1.000
    C242    C    0.87333   0.36732   0.76111   1.000
    C243    C    0.87329   0.86735   0.76120   1.000
    C244    C    0.46129   0.40889   0.07876   1.000
    C245    C    0.46146   0.90900   0.07881   1.000
    C246    C    0.96171   0.40899   0.07877   1.000
    C247    C    0.96163   0.90903   0.07889   1.000
    C248    C    0.04110   0.25760   0.86963   1.000
    C249    C    0.04104   0.75744   0.86956   1.000
    C250    C    0.54099   0.25755   0.86946   1.000
    C251    C    0.54097   0.75744   0.86947   1.000
    C252    C    0.05606   0.32223   0.90663   1.000
    C253    C    0.05598   0.82206   0.90658   1.000
    C254    C    0.55584   0.32217   0.90640   1.000
    C255    C    0.55581   0.82205   0.90646   1.000
    C256    C    0.04261   0.34926   0.83634   1.000
    C257    C    0.04255   0.84911   0.83631   1.000
    C258    C    0.54239   0.34918   0.83607   1.000
    C259    C    0.54241   0.84908   0.83617   1.000
    C260    C    0.01485   0.31020   0.73278   1.000
    C261    C    0.01480   0.81006   0.73274   1.000
    C262    C    0.51472   0.31009   0.73252   1.000
    C263    C    0.51477   0.81001   0.73261   1.000
    C264    C    0.50109   0.24590   0.70084   1.000
    C265    C    0.50116   0.74582   0.70088   1.000
    C266    C    0.00000   0.24601   0.70104   1.000
    C267    C    0.00000   0.74586   0.70098   1.000
    C268    C    0.08368   0.36086   0.02070   1.000
    C269    C    0.08360   0.86067   0.02065   1.000
    C270    C    0.58333   0.36081   0.02044   1.000
    C271    C    0.58327   0.86066   0.02052   1.000
    C272    C    0.06142   0.07747   0.56953   1.000
    C273    C    0.06144   0.57741   0.56965   1.000
    C274    C    0.56143   0.07740   0.56950   1.000
    C275    C    0.56145   0.57735   0.56948   1.000
    C276    C    0.10826   0.07275   0.53409   1.000
    C277    C    0.10829   0.57278   0.53420   1.000
    C278    C    0.60830   0.07273   0.53412   1.000
    C279    C    0.60831   0.57269   0.53406   1.000
    C280    C    0.17009   0.09710   0.60538   1.000
    C281    C    0.17011   0.59716   0.60540   1.000
    C282    C    0.67011   0.09710   0.60545   1.000
    C283    C    0.67013   0.59704   0.60536   1.000
    C284    C    0.18190   0.12337   0.70879   1.000
    C285    C    0.18193   0.62339   0.70890   1.000
    C286    C    0.68190   0.12334   0.70884   1.000
    C287    C    0.68194   0.62329   0.70877   1.000
    C288    C    0.13285   0.12677   0.73877   1.000
    C289    C    0.13288   0.62671   0.73889   1.000
    C290    C    0.63283   0.12668   0.73877   1.000
    C291    C    0.63288   0.62665   0.73870   1.000
    C292    C    0.09084   0.03817   0.42107   1.000
    C293    C    0.09087   0.53824   0.42110   1.000
    C294    C    0.59096   0.03820   0.42113   1.000
    C295    C    0.59091   0.53815   0.42105   1.000
    C296    C    0.24250   0.45912   0.63056   1.000
    C297    C    0.24250   0.95902   0.63051   1.000
    C298    C    0.74237   0.45893   0.63042   1.000
    C299    C    0.74241   0.95899   0.63041   1.000
    C300    C    0.17786   0.44409   0.59354   1.000
    C301    C    0.17784   0.94395   0.59347   1.000
    C302    C    0.67772   0.44394   0.59342   1.000
    C303    C    0.67776   0.94393   0.59335   1.000
    C304    C    0.15085   0.45752   0.66380   1.000
    C305    C    0.15082   0.95738   0.66371   1.000
    C306    C    0.65073   0.45740   0.66371   1.000
    C307    C    0.65074   0.95735   0.66360   1.000
    C308    C    0.18996   0.48532   0.76736   1.000
    C309    C    0.18993   0.98524   0.76728   1.000
    C310    C    0.68985   0.48520   0.76720   1.000
    C311    C    0.68984   0.98519   0.76717   1.000
    C312    C    0.25416   0.99906   0.79907   1.000
    C313    C    0.25418   0.49911   0.79913   1.000
    C314    C    0.75406   0.99900   0.79897   1.000
    C315    C    0.75407   0.49896   0.79901   1.000
    C316    C    0.13917   0.41641   0.47944   1.000
    C317    C    0.13917   0.91623   0.47937   1.000
    C318    C    0.63898   0.41627   0.47934   1.000
    C319    C    0.63906   0.91622   0.47926   1.000
    Br320   Br   0.15318   0.26479   0.31071   1.000
    Br321   Br   0.15319   0.76483   0.31077   1.000
    Br322   Br   0.65317   0.26482   0.31080   1.000
    Br323   Br   0.65322   0.76477   0.31091   1.000
    Br324   Br   0.00671   0.15618   0.36774   1.000
    Br325   Br   0.00666   0.65603   0.36769   1.000
    Br326   Br   0.50668   0.15625   0.36791   1.000
    Br327   Br   0.50677   0.65619   0.36801   1.000
    Br328   Br   0.23487   0.34676   0.18949   1.000
    Br329   Br   0.23491   0.84671   0.18939   1.000
    Br330   Br   0.73487   0.34663   0.18935   1.000
    Br331   Br   0.73489   0.84668   0.18946   1.000
    Br332   Br   0.34381   0.49330   0.13229   1.000
    Br333   Br   0.34386   0.99331   0.13246   1.000
    Br334   Br   0.84370   0.49320   0.13220   1.000
    Br335   Br   0.84375   0.99324   0.13232   1.000
    Br336   Br   0.34673   0.23521   0.68910   1.000
    Br337   Br   0.34679   0.73516   0.68921   1.000
    Br338   Br   0.84677   0.23515   0.68924   1.000
    Br339   Br   0.84678   0.73519   0.68930   1.000
    Br340   Br   0.49319   0.34378   0.63199   1.000
    Br341   Br   0.49328   0.84373   0.63210   1.000
    Br342   Br   0.99330   0.34395   0.63232   1.000
    Br343   Br   0.99325   0.84380   0.63220   1.000
    Br344   Br   0.26506   0.15330   0.81055   1.000
    Br345   Br   0.26509   0.65335   0.81066   1.000
    Br346   Br   0.76505   0.15327   0.81060   1.000
    Br347   Br   0.76509   0.65322   0.81053   1.000
    Br348   Br   0.15621   0.00674   0.86769   1.000
    Br349   Br   0.15626   0.50678   0.86781   1.000
    Br350   Br   0.65610   0.00667   0.86755   1.000
    Br351   Br   0.65615   0.50667   0.86771   1.000
    N352    N    0.10455   0.07332   0.16929   1.000
    N353    N    0.10450   0.57335   0.16930   1.000
    N354    N    0.60446   0.07335   0.16941   1.000
    N355    N    0.60444   0.57329   0.16935   1.000
    N356    N    0.48546   0.27978   0.23087   1.000
    N357    N    0.48549   0.77968   0.23088   1.000
    N358    N    0.98553   0.27977   0.23079   1.000
    N359    N    0.98547   0.77961   0.23073   1.000
    N360    N    0.42643   0.39551   0.33076   1.000
    N361    N    0.42649   0.89546   0.33074   1.000
    N362    N    0.92645   0.39547   0.33058   1.000
    N363    N    0.92647   0.89536   0.33070   1.000
    N364    N    0.22028   0.01431   0.26926   1.000
    N365    N    0.22030   0.51438   0.26925   1.000
    N366    N    0.72019   0.01426   0.26915   1.000
    N367    N    0.72016   0.51418   0.26910   1.000
    N368    N    0.39552   0.42669   0.83066   1.000
    N369    N    0.39550   0.92663   0.83060   1.000
    N370    N    0.89546   0.42663   0.83062   1.000
    N371    N    0.89541   0.92666   0.83072   1.000
    N372    N    0.01449   0.22037   0.76929   1.000
    N373    N    0.01444   0.72022   0.76921   1.000
    N374    N    0.51446   0.22030   0.76913   1.000
    N375    N    0.51449   0.72020   0.76914   1.000
    N376    N    0.07349   0.10462   0.66931   1.000
    N377    N    0.07351   0.60451   0.66943   1.000
    N378    N    0.57347   0.10452   0.66927   1.000
    N379    N    0.57352   0.60447   0.66926   1.000
    N380    N    0.27979   0.48579   0.73090   1.000
    N381    N    0.27977   0.98572   0.73086   1.000
    N382    N    0.77966   0.48561   0.73070   1.000
    N383    N    0.77968   0.98567   0.73076   1.000
    O384    O    0.50107   0.03753   0.86936   1.000
    O385    O    0.50103   0.53775   0.86940   1.000
    O386    O    0.00000   0.03751   0.86930   1.000
    O387    O    0.00000   0.53756   0.86943   1.000
    O388    O    0.04951   0.13195   0.88856   1.000
    O389    O    0.04942   0.63205   0.88873   1.000
    O390    O    0.54974   0.13201   0.88870   1.000
    O391    O    0.55017   0.63205   0.88876   1.000
    O392    O    0.40926   0.16960   0.92389   1.000
    O393    O    0.40914   0.66941   0.92392   1.000
    O394    O    0.90888   0.16958   0.92374   1.000
    O395    O    0.90880   0.66937   0.92367   1.000
    O396    O    0.40465   0.08070   0.94975   1.000
    O397    O    0.40463   0.58055   0.94985   1.000
    O398    O    0.90424   0.08069   0.94960   1.000
    O399    O    0.90416   0.58050   0.94956   1.000
    O400    O    0.46247   0.99924   0.63060   1.000
    O401    O    0.46259   0.49908   0.63072   1.000
    O402    O    0.96255   0.99933   0.63050   1.000
    O403    O    0.96263   0.49905   0.63054   1.000
    O404    O    0.36797   0.45087   0.61151   1.000
    O405    O    0.36797   0.95064   0.61140   1.000
    O406    O    0.86805   0.45074   0.61142   1.000
    O407    O    0.86817   0.95063   0.61161   1.000
    O408    O    0.33067   0.09127   0.57639   1.000
    O409    O    0.33081   0.59158   0.57640   1.000
    O410    O    0.83052   0.09122   0.57623   1.000
    O411    O    0.83056   0.59132   0.57621   1.000
    O412    O    0.41954   0.09591   0.55051   1.000
    O413    O    0.41960   0.59544   0.55030   1.000
    O414    O    0.91943   0.09594   0.55044   1.000
    O415    O    0.91941   0.59542   0.55020   1.000
    O416    O    0.99918   0.46243   0.13058   1.000
    O417    O    0.99912   0.96247   0.13063   1.000
    O418    O    0.49893   0.46223   0.13061   1.000
    O419    O    0.49889   0.96244   0.13065   1.000
    O420    O    0.44979   0.36793   0.11125   1.000
    O421    O    0.45021   0.86796   0.11131   1.000
    O422    O    0.95055   0.36794   0.11128   1.000
    O423    O    0.95045   0.86802   0.11145   1.000
    O424    O    0.09117   0.33061   0.07634   1.000
    O425    O    0.09108   0.83040   0.07627   1.000
    O426    O    0.59081   0.33056   0.07609   1.000
    O427    O    0.59069   0.83038   0.07612   1.000
    O428    O    0.09580   0.41948   0.05045   1.000
    O429    O    0.09571   0.91929   0.05041   1.000
    O430    O    0.59533   0.41943   0.05016   1.000
    O431    O    0.59531   0.91927   0.05027   1.000
    O432    O    0.03733   0.50093   0.36947   1.000
    O433    O    0.03741   0.00000   0.36951   1.000
    O434    O    0.53736   0.50089   0.36930   1.000
    O435    O    0.53749   0.00000   0.36941   1.000
    O436    O    0.13178   0.04935   0.38839   1.000
    O437    O    0.13191   0.54924   0.38850   1.000
    O438    O    0.63199   0.04934   0.38861   1.000
    O439    O    0.63199   0.54909   0.38850   1.000
    O440    O    0.16939   0.40865   0.42300   1.000
    O441    O    0.16943   0.90875   0.42378   1.000
    O442    O    0.66915   0.40840   0.42360   1.000
    O443    O    0.66929   0.90871   0.42362   1.000
    O444    O    0.08054   0.40456   0.44973   1.000
    O445    O    0.08053   0.90404   0.44957   1.000
    O446    O    0.58037   0.40454   0.44971   1.000
    O447    O    0.58042   0.90407   0.44950   1.000
    O448    O    0.40114   0.09906   0.75009   1.000
    O449    O    0.40126   0.59924   0.75013   1.000
    O450    O    0.90105   0.09908   0.75003   1.000
    O451    O    0.90104   0.59911   0.75001   1.000
    O452    O    0.09892   0.40087   0.25000   1.000
    O453    O    0.09891   0.90089   0.24998   1.000
    O454    O    0.59869   0.40074   0.24980   1.000
    O455    O    0.59882   0.90092   0.24992   1.000
loop_
    _geom_bond_atom_site_label_1
    _geom_bond_atom_site_label_2
    _geom_bond_distance
    _geom_bond_site_symmetry_2
    _ccdc_geom_bond_type
    H20    C128      1.08871      .   S
    H23    C131      1.08845      .   S
    H22    C130      1.08836      .   S
    H21    C129      1.08842      .   S
    C270   O430      1.27294      .   S
    C270   O426      1.27208      .   S
    C270   C254      1.51463  1_554   S
    C271   O431      1.27291      .   S
    C271   O427      1.27214      .   S
    C271   C255      1.51476  1_554   S
    C269   O429      1.27293      .   S
    C269   O425      1.27215      .   S
    C269   C253      1.51476  1_554   S
    C268   O428      1.27291      .   S
    C268   O424      1.27201      .   S
    C268   C252      1.51486  1_554   S
    C132   C128      1.39751      .   S
    C132   C136      1.39926      .   S
    C132   C148      1.51359  1_554   S
    C134   C130      1.39724      .   S
    C134   C138      1.39926      .   S
    C134   C150      1.51356  1_554   S
    C133   C129      1.39748      .   S
    C133   C137      1.39924      .   S
    C133   C149      1.51396  1_554   S
    C135   C131      1.39755      .   S
    C135   C139      1.39921      .   S
    C135   C151      1.51345  1_554   S
    O430   Cd10      2.41783      .   S
    O431   Cd11      2.41919      .   S
    O429   Cd9       2.41915      .   S
    O428   Cd8       2.41909      .   S
    C128   N352      1.34490      .   S
    C131   N355      1.34499      .   S
    C130   N354      1.34534      .   S
    C129   N353      1.34380      .   S
    H35    C155      1.08643      .   S
    H34    C154      1.08750      .   S
    H32    C152      1.08758      .   S
    H33    C153      1.08764      .   S
    C244   O420      1.27608      .   S
    C244   O418      1.26302      .   S
    C244   C228      1.51345  1_554   S
    C246   O422      1.27605      .   S
    C246   O416      1.26329      .   S
    C246   C230      1.51344  1_554   S
    C245   O421      1.27615      .   S
    C245   O419      1.26309      .   S
    C245   C229      1.51357  1_554   S
    C247   O423      1.27597      .   S
    C247   O417      1.26330      .   S
    C247   C231      1.51358  1_554   S
    H24    C136      1.08987      .   S
    H25    C137      1.08992      .   S
    H26    C138      1.08992      .   S
    H27    C139      1.08999      .   S
    C159   C155      1.39762      .   S
    C159   C163      1.39874      .   S
    C159   C175      1.51486  1_554   S
    C158   C154      1.39750      .   S
    C158   C162      1.39882      .   S
    C158   C174      1.51477  1_554   S
    C156   C152      1.39747      .   S
    C156   C160      1.39814      .   S
    C156   C172      1.52073  1_554   S
    C157   C153      1.39752      .   S
    C157   C161      1.39874      .   S
    C157   C173      1.51463  1_554   S
    C136   C140      1.39538      .   S
    C137   C141      1.39538      .   S
    C138   C142      1.39532      .   S
    C139   C143      1.39540      .   S
    O420   Cd14      2.33245      .   S
    O422   Cd12      2.33087  1_655   S
    O421   Cd15      2.33147      .   S
    O423   Cd13      2.33070  1_655   S
    H70    C218      1.09009      .   S
    H71    C219      1.08983  1_565   S
    H68    C216      1.09017      .   S
    H69    C217      1.08972  1_565   S
    C155   N359      1.34730      .   S
    C154   N358      1.34624      .   S
    C152   N356      1.34620      .   S
    C153   N357      1.34617      .   S
    O416   Cd8       2.38401  1_655   S
    O418   Cd10      2.38511      .   S
    O417   Cd9       2.38377  1_655   S
    O419   Cd11      2.38603      .   S
    Br334  C215      1.91532      .   S
    Br332  C213      1.91519      .   S
    Br335  C214      1.91523  1_565   S
    Br333  C212      1.91510  1_565   S
    H39    C163      1.08874      .   S
    H38    C162      1.08873      .   S
    H36    C160      1.08880      .   S
    H37    C161      1.08873      .   S
    C163   C167      1.39278      .   S
    C162   C166      1.39276      .   S
    C160   C164      1.39329      .   S
    C161   C165      1.39282      .   S
    N352   Cd9       2.35452  1_545   S
    N352   C144      1.34791      .   S
    N353   Cd8       2.35521      .   S
    N353   C145      1.34424      .   S
    N355   Cd10      2.35477      .   S
    N355   C147      1.34798      .   S
    N354   Cd11      2.35386  1_545   S
    N354   C146      1.34791      .   S
    H58    C194      1.08996      .   S
    H59    C195      1.09025      .   S
    H57    C193      1.09001      .   S
    H56    C192      1.09009      .   S
    H74    O454      1.03488      .   S
    H75    O455      1.03657      .   S
    H72    O452      1.03577      .   S
    H73    O453      1.03562      .   S
    Br330  C190      1.91009      .   S
    Br329  C189      1.90998      .   S
    Br331  C191      1.91010      .   S
    Br328  C188      1.90997      .   S
    C218   C215      1.39499      .   S
    C218   N367      1.34733      .   S
    C219   C214      1.39476      .   S
    C219   N366      1.34820      .   S
    C216   C213      1.39498      .   S
    C216   N365      1.34743      .   S
    C217   C212      1.39476      .   S
    C217   N364      1.34843      .   S
    C140   C144      1.39476      .   S
    C140   Br320     1.91006      .   S
    C141   C145      1.38665      .   S
    C141   Br321     1.91000      .   S
    C142   C146      1.39477      .   S
    C142   Br322     1.90998      .   S
    C143   C147      1.39471      .   S
    C143   Br323     1.91001      .   S
    Cd10   N367      2.42016      .   S
    Cd10   O439      2.33037      .   S
    Cd9    N364      2.41987  1_565   S
    Cd9    O436      2.33093  1_565   S
    Cd11   N366      2.42084  1_565   S
    Cd11   O438      2.33155  1_565   S
    Cd8    N365      2.41926      .   S
    Cd8    O437      2.32978      .   S
    N359   Cd13      2.41995  1_655   S
    N359   C169      1.34734      .   S
    N358   Cd12      2.42069  1_655   S
    N358   C168      1.34747      .   S
    N356   Cd14      2.42040      .   S
    N356   C170      1.34739      .   S
    N357   Cd15      2.41999      .   S
    N357   C171      1.34649      .   S
    C215   C211      1.39276      .   S
    C214   C210      1.39282      .   S
    C213   C209      1.39279      .   S
    C212   C208      1.39278      .   S
    C145   H29       1.10261      .   S
    C144   H28       1.09002      .   S
    C147   H31       1.09003      .   S
    C146   H30       1.09001      .   S
    O454   H102      1.03589      .   S
    O455   H103      1.03586      .   S
    O453   H101      1.03569      .   S
    O452   H100      1.03558      .   S
    C194   C190      1.39472      .   S
    C194   N362      1.34789      .   S
    C193   C189      1.39474      .   S
    C193   N361      1.34790      .   S
    C195   C191      1.39474      .   S
    C195   N363      1.34790      .   S
    C192   C188      1.39470      .   S
    C192   N360      1.34786      .   S
    C167   C169      1.39497      .   S
    C167   Br325     1.91519  1_655   S
    C166   C168      1.39496      .   S
    C166   Br324     1.91525  1_655   S
    C164   C170      1.39498      .   S
    C164   Br326     1.91528      .   S
    C165   C171      1.39510      .   S
    C165   Br327     1.91512      .   S
    N367   C203      1.34635      .   S
    N366   C202      1.34629      .   S
    N365   C201      1.34628      .   S
    N364   C200      1.34626      .   S
    Cd14   N360      2.35313      .   S
    Cd14   O434      2.38487      .   S
    Cd14   O446      2.42015      .   S
    Cd15   N361      2.35406      .   S
    Cd15   O435      2.36867  1_565   S
    Cd15   O447      2.41933      .   S
    Cd12   N362      2.35479  1_455   S
    Cd12   O432      2.38567      .   S
    Cd12   O444      2.41864      .   S
    Cd13   N363      2.35531  1_455   S
    Cd13   O433      2.37004  1_565   S
    Cd13   O445      2.41908      .   S
    C190   C186      1.39538      .   S
    C189   C185      1.39540      .   S
    C191   C187      1.39541      .   S
    C188   C184      1.39529      .   S
    C169   H41       1.09011  1_655   S
    C168   H40       1.09005  1_655   S
    C171   H43       1.09090      .   S
    C170   H42       1.09009      .   S
    N362   C178      1.34497      .   S
    N363   C179      1.34395      .   S
    N361   C177      1.34499      .   S
    N360   C176      1.34443      .   S
    C211   H67       1.08872      .   S
    C211   C207      1.39872      .   S
    C210   H66       1.08873      .   S
    C210   C206      1.39813      .   S
    C209   H65       1.08871      .   S
    C209   C205      1.39877      .   S
    C208   H64       1.08871      .   S
    C208   C204      1.39876      .   S
    O434   C295      1.26298      .   S
    O435   C294      1.26986      .   S
    C203   C207      1.39748      .   S
    C203   H63       1.08751      .   S
    O432   C293      1.26306      .   S
    C202   C206      1.39752      .   S
    C202   H62       1.08747      .   S
    O433   C292      1.26909      .   S
    C201   C205      1.39749      .   S
    C201   H61       1.08761      .   S
    C200   C204      1.39753      .   S
    C200   H60       1.08751      .   S
    O436   C292      1.27597      .   S
    O437   C293      1.27628      .   S
    O439   C295      1.27613      .   S
    O438   C294      1.27602      .   S
    C186   H54       1.08999      .   S
    C186   C182      1.39929      .   S
    C185   H53       1.08993      .   S
    C185   C181      1.39922      .   S
    C187   H55       1.08994      .   S
    C187   C183      1.39928      .   S
    C184   H52       1.08999      .   S
    C184   C180      1.39927      .   S
    C207   C223      1.51419      .   S
    C206   C222      1.51496      .   S
    C205   C221      1.51501      .   S
    C204   C220      1.51496      .   S
    C295   C279      1.51367      .   S
    C292   C276      1.51381      .   S
    C293   C277      1.51477      .   S
    C294   C278      1.51363      .   S
    O440   C316      1.28190      .   S
    O442   C318      1.27212      .   S
    O443   C319      1.27212      .   S
    O441   C317      1.27217      .   S
    C178   C182      1.39751      .   S
    C178   H50       1.08845      .   S
    C179   C183      1.39827      .   S
    C179   H51       1.08873      .   S
    C176   C180      1.39777      .   S
    C176   H48       1.08857      .   S
    C177   C181      1.39748      .   S
    C177   H49       1.08831      .   S
    O447   C319      1.27289      .   S
    O445   C317      1.27289      .   S
    O446   C318      1.27287      .   S
    O444   C316      1.27295      .   S
    C182   C198      1.51384      .   S
    C181   C197      1.51363      .   S
    C183   C199      1.51382      .   S
    C180   C196      1.51288      .   S
    C319   C303      1.51496      .   S
    C318   C302      1.51501      .   S
    C317   C301      1.51497      .   S
    C316   C300      1.51504      .   S
    H106   C274      1.08846      .   S
    H107   C275      1.08842      .   S
    H104   C272      1.08844      .   S
    H105   C273      1.08845      .   S
    C223   O415      1.27298      .   S
    C223   O411      1.27288      .   S
    C222   O414      1.27286      .   S
    C222   O410      1.27269      .   S
    C221   O413      1.27287      .   S
    C221   O409      1.27201      .   S
    C220   O412      1.27287      .   S
    C220   O408      1.27210      .   S
    C279   C275      1.39746      .   S
    C279   C283      1.39927      .   S
    C276   C272      1.39750      .   S
    C276   C280      1.39930      .   S
    C278   C274      1.39751      .   S
    C278   C282      1.39924      .   S
    C277   C273      1.39749      .   S
    C277   C281      1.39891      .   S
    O415   Cd7       2.41964      .   S
    O413   Cd5       2.42011      .   S
    O414   Cd6       2.41911      .   S
    O412   Cd4       2.41934      .   S
    C275   N379      1.34498      .   S
    C274   N378      1.34499      .   S
    C272   N376      1.34504      .   S
    C273   N377      1.34497      .   S
    H118   C298      1.08761      .   S
    H119   C299      1.08763      .   S
    H117   C297      1.08758      .   S
    H116   C296      1.08764      .   S
    C198   O406      1.27608      .   S
    C198   O403      1.26309      .   S
    C197   O405      1.27600      .   S
    C197   O400      1.26324      .   S
    C196   O404      1.27676      .   S
    C196   O401      1.26301      .   S
    C199   O407      1.27587      .   S
    C199   O402      1.26327      .   S
    H111   C283      1.08990      .   S
    H108   C280      1.08992      .   S
    H110   C282      1.09002      .   S
    H109   C281      1.08918      .   S
    C303   C299      1.39752      .   S
    C303   C307      1.39876      .   S
    C302   C298      1.39749      .   S
    C302   C306      1.39878      .   S
    C301   C297      1.39749      .   S
    C301   C305      1.39863      .   S
    C300   C296      1.39748      .   S
    C300   C304      1.39869      .   S
    C283   C287      1.39542      .   S
    C280   C284      1.39541      .   S
    C281   C285      1.39662      .   S
    C282   C286      1.39527      .   S
    O405   Cd0       2.33154  1_565   S
    O406   Cd3       2.33069      .   S
    O404   Cd1       2.33045      .   S
    O407   Cd2       2.33101  1_565   S
    H96    C264      1.09013      .   S
    H97    C265      1.09008      .   S
    H99    C267      1.08977  1_655   S
    H98    C266      1.08984  1_655   S
    C299   N383      1.34626      .   S
    C298   N382      1.34558      .   S
    O402   Cd6       2.38367  1_565   S
    C297   N381      1.34630      .   S
    O403   Cd7       2.38567      .   S
    C296   N380      1.34624      .   S
    O400   Cd4       2.38408  1_565   S
    O401   Cd5       2.38483      .   S
    Br340  C262      1.91522      .   S
    Br341  C263      1.91529      .   S
    Br343  C261      1.91622  1_655   S
    Br342  C260      1.91516  1_655   S
    H123   C307      1.08871      .   S
    H121   C305      1.08872      .   S
    H122   C306      1.08871      .   S
    H120   C304      1.08874      .   S
    C307   C311      1.39278      .   S
    C306   C310      1.39199      .   S
    C305   C309      1.39283      .   S
    C304   C308      1.39276      .   S
    N379   Cd5       2.35308      .   S
    N379   C291      1.34770      .   S
    N378   Cd4       2.35410      .   S
    N378   C290      1.34790      .   S
    N376   Cd6       2.35526  1_455   S
    N376   C288      1.34790      .   S
    N377   Cd7       2.35476  1_455   S
    N377   C289      1.34789      .   S
    H85    C241      1.09002      .   S
    H86    C242      1.08997      .   S
    H84    C240      1.09004      .   S
    H87    C243      1.09002      .   S
    H46    O450      1.03571      .   S
    H47    O451      1.03556      .   S
    H44    O448      1.03584      .   S
    H45    O449      1.03566      .   S
    Br336  C236      1.91006      .   S
    Br337  C237      1.90998      .   S
    Br338  C238      1.91001      .   S
    Br339  C239      1.91001      .   S
    C264   C262      1.39498      .   S
    C264   N374      1.34738      .   S
    C265   C263      1.39500      .   S
    C265   N375      1.34739      .   S
    C267   C261      1.39466      .   S
    C267   N373      1.34837      .   S
    C266   C260      1.39469      .   S
    C266   N372      1.34851      .   S
    C287   C291      1.39433      .   S
    C287   Br347     1.90998      .   S
    C284   C288      1.39474      .   S
    C284   Br344     1.91009      .   S
    C286   C290      1.39473      .   S
    C286   Br346     1.90988      .   S
    C285   C289      1.39473      .   S
    C285   Br345     1.91008      .   S
    Cd6    N372      2.41993  1_655   S
    Cd6    O388      2.33075  1_655   S
    Cd7    N373      2.42071  1_655   S
    Cd7    O389      2.33090  1_655   S
    Cd4    N374      2.41999      .   S
    Cd4    O390      2.33145      .   S
    Cd5    N375      2.42040      .   S
    Cd5    O391      2.33242      .   S
    N382   Cd3       2.41921      .   S
    N382   C315      1.34821      .   S
    N383   Cd2       2.41986  1_565   S
    N383   C314      1.34741      .   S
    N381   Cd0       2.42086  1_565   S
    N381   C312      1.34732      .   S
    N380   Cd1       2.42016      .   S
    N380   C313      1.34742      .   S
    C262   C258      1.39282      .   S
    C263   C259      1.39283      .   S
    C261   C257      1.39287      .   S
    C260   C256      1.39279      .   S
    C291   H115      1.09051      .   S
    C290   H114      1.09001      .   S
    C288   H112      1.08997      .   S
    C289   H113      1.08996      .   S
    O451   H19       1.03577      .   S
    O450   H18       1.03561      .   S
    O448   H16       1.03581      .   S
    O449   H17       1.03579      .   S
    C241   C237      1.39477      .   S
    C241   N369      1.34791      .   S
    C240   C236      1.39471      .   S
    C240   N368      1.34793      .   S
    C242   C238      1.39476      .   S
    C242   N370      1.34788      .   S
    C243   C239      1.39467      .   S
    C243   N371      1.34791      .   S
    C311   C314      1.39500      .   S
    C311   Br350     1.91511  1_565   S
    C310   C315      1.39489      .   S
    C310   Br351     1.91597      .   S
    C309   C312      1.39501      .   S
    C309   Br348     1.91518  1_565   S
    C308   C313      1.39501      .   S
    C308   Br349     1.91529      .   S
    N374   C250      1.34628      .   S
    N375   C251      1.34619      .   S
    N373   C249      1.34635      .   S
    N372   C248      1.34627      .   S
    Cd3    N370      2.35459      .   S
    Cd3    O387      2.36765  1_655   S
    Cd3    O399      2.41931      .   S
    Cd0    N369      2.35386  1_545   S
    Cd0    O384      2.38601      .   S
    Cd0    O396      2.41927      .   S
    Cd2    N371      2.35454  1_545   S
    Cd2    O386      2.36617  1_655   S
    Cd2    O398      2.41914      .   S
    Cd1    N368      2.35470      .   S
    Cd1    O385      2.38514      .   S
    Cd1    O397      2.41786      .   S
    C236   C232      1.39540      .   S
    C237   C233      1.39532      .   S
    C238   C234      1.39537      .   S
    C239   C235      1.39552      .   S
    C314   H126      1.09005  1_565   S
    C315   H127      1.09017      .   S
    C312   H124      1.09006  1_565   S
    C313   H125      1.09009      .   S
    N369   C225      1.34507      .   S
    N370   C226      1.34503      .   S
    N368   C224      1.34498      .   S
    N371   C227      1.34489      .   S
    C258   H94       1.08873      .   S
    C258   C254      1.39872      .   S
    C259   H95       1.08875      .   S
    C259   C255      1.39868      .   S
    C257   H93       1.08873      .   S
    C257   C253      1.39872      .   S
    C256   H92       1.08871      .   S
    C256   C252      1.39872      .   S
    O386   C148      1.27085      .   S
    O384   C150      1.26311      .   S
    O385   C151      1.26302      .   S
    O387   C149      1.27029      .   S
    C250   C254      1.39753      .   S
    C250   H90       1.08749      .   S
    C251   C255      1.39747      .   S
    C251   H91       1.08760      .   S
    C249   C253      1.39748      .   S
    C249   H89       1.08752      .   S
    C248   C252      1.39757      .   S
    C248   H88       1.08756      .   S
    O388   C148      1.27596      .   S
    O390   C150      1.27611      .   S
    O389   C149      1.27562      .   S
    O391   C151      1.27610      .   S
    C232   H80       1.08989      .   S
    C232   C228      1.39918      .   S
    C233   H81       1.08995      .   S
    C233   C229      1.39924      .   S
    C234   H82       1.08955      .   S
    C234   C230      1.39924      .   S
    C235   H83       1.08990      .   S
    C235   C231      1.39925      .   S
    O395   C175      1.27203      .   S
    O394   C174      1.27215      .   S
    O392   C172      1.26602      .   S
    O393   C173      1.27205      .   S
    C225   C229      1.39745      .   S
    C225   H77       1.08844      .   S
    C226   C230      1.39743      .   S
    C226   H78       1.08844      .   S
    C224   C228      1.39754      .   S
    C224   H76       1.08848      .   S
    C227   C231      1.39753      .   S
    C227   H79       1.08845      .   S
    O399   C175      1.27291      .   S
    O398   C174      1.27292      .   S
    O396   C172      1.27364      .   S
    O397   C173      1.27292      .   S
    O448   Cd0       2.32869      .   S
    O448   Cd4       2.33011      .   S
    O449   Cd1       2.33098      .   S
    O449   Cd5       2.32953      .   S
    O450   Cd2       2.32958      .   S
    O450   Cd6       2.33048      .   S
    O451   Cd3       2.33035      .   S
    O451   Cd7       2.32992      .   S
    O452   Cd8       2.33054      .   S
    O452   Cd12      2.32997      .   S
    O453   Cd9       2.32958      .   S
    O453   Cd13      2.33050      .   S
    O454   Cd10      2.33036      .   S
    O454   Cd14      2.33010      .   S
    O455   Cd11      2.32868      .   S
    O455   Cd15      2.33007      .   S
