# CIF file generated by openbabel 2.4.90, see http://openbabel.sf.net
data_I
_chemical_name_common ''
_cell_length_a 11.298
_cell_length_b 24.39
_cell_length_c 22.765
_cell_angle_alpha 99.196
_cell_angle_beta 89.99
_cell_angle_gamma 89.963
_space_group_name_H-M_alt 'P 1'
_space_group_name_Hall 'P 1'
loop_
    _symmetry_equiv_pos_as_xyz
    x,y,z
loop_
    _atom_site_label
    _atom_site_type_symbol
    _atom_site_fract_x
    _atom_site_fract_y
    _atom_site_fract_z
    _atom_site_occupancy
    C0      C    0.12687   0.24721   0.76655   1.000
    C1      C    0.12684   0.74722   0.76655   1.000
    C2      C    0.62686   0.24721   0.76655   1.000
    C3      C    0.12315   0.49732   0.26658   1.000
    C4      C    0.12319   0.99733   0.26655   1.000
    C5      C    0.62315   0.49732   0.26658   1.000
    C6      C    0.62319   0.99733   0.26655   1.000
    C7      C    0.13597   0.35917   0.65380   1.000
    C8      C    0.37680   0.00269   0.73343   1.000
    C9      C    0.37684   0.50270   0.73300   1.000
    C10     C    0.87680   0.00269   0.73343   1.000
    C11     C    0.87683   0.50270   0.73339   1.000
    C12     C    0.36403   0.14082   0.34616   1.000
    C13     C    0.36400   0.64085   0.34610   1.000
    C14     C    0.86402   0.14082   0.34616   1.000
    C15     C    0.86400   0.64085   0.34610   1.000
    O16     O    0.26879   0.99061   0.74000   1.000
    O17     O    0.76884   0.49061   0.74028   1.000
    O18     O    0.76879   0.99061   0.74000   1.000
    O19     O    0.46594   0.47895   0.75191   1.000
    O20     O    0.46589   0.97895   0.75190   1.000
    O21     O    0.96593   0.47895   0.75191   1.000
    O22     O    0.96588   0.97895   0.75190   1.000
    O23     O    0.25592   0.13706   0.33122   1.000
    C24     C    0.62683   0.74722   0.76655   1.000
    C25     C    0.11394   0.10923   0.15359   1.000
    C26     C    0.11393   0.60922   0.15362   1.000
    C27     C    0.61394   0.10923   0.15359   1.000
    C28     C    0.61393   0.60922   0.15362   1.000
    C29     C    0.13594   0.85920   0.65383   1.000
    C30     C    0.63597   0.35917   0.65380   1.000
    C31     C    0.63593   0.85920   0.65383   1.000
    C32     C    0.37312   0.25280   0.23344   1.000
    C33     C    0.37310   0.75280   0.23343   1.000
    C34     C    0.87312   0.25280   0.23344   1.000
    C35     C    0.87309   0.75280   0.23343   1.000
    C36     C    0.38603   0.39080   0.84636   1.000
    C37     C    0.38602   0.89080   0.84639   1.000
    C38     C    0.88602   0.39080   0.84636   1.000
    C39     C    0.88602   0.89080   0.84639   1.000
    O40     O    0.44950   0.13165   0.30873   1.000
    O41     O    0.44946   0.63167   0.30874   1.000
    O42     O    0.94950   0.13165   0.30873   1.000
    O43     O    0.94945   0.63167   0.30874   1.000
    O44     O    0.26884   0.49061   0.74028   1.000
    O45     O    0.25588   0.63710   0.33126   1.000
    O46     O    0.75592   0.13706   0.33122   1.000
    O47     O    0.75588   0.63710   0.33126   1.000
    O48     O    0.19932   0.11845   0.19106   1.000
    O49     O    0.19932   0.61845   0.19108   1.000
    O50     O    0.69932   0.11845   0.19106   1.000
    O51     O    0.69931   0.61845   0.19108   1.000
    O52     O    0.01884   0.25934   0.75972   1.000
    O53     O    0.01881   0.75935   0.75972   1.000
    O54     O    0.51884   0.25934   0.75972   1.000
    O55     O    0.51881   0.75935   0.75972   1.000
    O56     O    0.21590   0.27100   0.74807   1.000
    O57     O    0.21588   0.77101   0.74807   1.000
    O58     O    0.71589   0.27100   0.74807   1.000
    O59     O    0.71587   0.77101   0.74807   1.000
    O60     O    0.00577   0.11293   0.16844   1.000
    O61     O    0.00577   0.61292   0.16848   1.000
    O62     O    0.50577   0.11293   0.16844   1.000
    O63     O    0.50576   0.61292   0.16848   1.000
    O64     O    0.05051   0.36835   0.69124   1.000
    O65     O    0.05046   0.86836   0.69126   1.000
    O66     O    0.55051   0.36835   0.69124   1.000
    O67     O    0.55046   0.86836   0.69126   1.000
    O68     O    0.23121   0.00941   0.25969   1.000
    O69     O    0.23115   0.50941   0.25971   1.000
    O70     O    0.73120   0.00941   0.25969   1.000
    O71     O    0.73115   0.50941   0.25970   1.000
    O72     O    0.03411   0.02107   0.24801   1.000
    O73     O    0.03406   0.52107   0.24806   1.000
    O74     O    0.53411   0.02107   0.24801   1.000
    O75     O    0.53405   0.52107   0.24806   1.000
    O76     O    0.24409   0.36293   0.66872   1.000
    O77     O    0.24405   0.86296   0.66878   1.000
    O78     O    0.74408   0.36293   0.66872   1.000
    O79     O    0.74404   0.86296   0.66878   1.000
    O80     O    0.30064   0.38157   0.80890   1.000
    O81     O    0.30064   0.88157   0.80893   1.000
    O82     O    0.80063   0.38157   0.80890   1.000
    O83     O    0.80063   0.88157   0.80893   1.000
    O84     O    0.48114   0.24067   0.24027   1.000
    O85     O    0.48112   0.74067   0.24026   1.000
    O86     O    0.98114   0.24067   0.24027   1.000
    O87     O    0.98111   0.74067   0.24026   1.000
    O88     O    0.28408   0.22901   0.25191   1.000
    O89     O    0.28406   0.72902   0.25191   1.000
    O90     O    0.78408   0.22901   0.25191   1.000
    O91     O    0.78405   0.72902   0.25191   1.000
    O92     O    0.49419   0.38710   0.83140   1.000
    O93     O    0.49419   0.88710   0.83154   1.000
    O94     O    0.99418   0.38710   0.83149   1.000
    O95     O    0.99418   0.88710   0.83150   1.000
loop_
    _geom_bond_atom_site_label_1
    _geom_bond_atom_site_label_2
    _geom_bond_distance
    _geom_bond_site_symmetry_2
    _ccdc_geom_bond_type
    C27    O62       1.26728      .   S
    C27    O50       1.28370      .   S
    C25    O60       1.26728      .   S
    C25    O48       1.28370      .   S
    C28    O63       1.26725      .   S
    C28    O51       1.28363      .   S
    C26    O61       1.26727      .   S
    C26    O49       1.28362      .   S
    C33    O85       1.27100      .   S
    C33    O89       1.26655      .   S
    C35    O87       1.27101      .   S
    C35    O91       1.26655      .   S
    C34    O86       1.27101      .   S
    C34    O90       1.26652      .   S
    C32    O84       1.27100      .   S
    C32    O88       1.26652      .   S
    O74    C6        1.26640  1_545   S
    O72    C4        1.26641  1_545   S
    O75    C5        1.26655      .   S
    O73    C3        1.26656      .   S
    O68    C4        1.27103  1_545   S
    O70    C6        1.27104  1_545   S
    O71    C5        1.27102      .   S
    O69    C3        1.27100      .   S
    O40    C12       1.28342      .   S
    O42    C14       1.28342      .   S
    O43    C15       1.28227      .   S
    O41    C13       1.28228      .   S
    O46    C14       1.26738      .   S
    O23    C12       1.26737      .   S
    O45    C13       1.26693      .   S
    O47    C15       1.26693      .   S
    C30    O78       1.26738      .   S
    C30    O66       1.28342      .   S
    C7     O76       1.26738      .   S
    C7     O64       1.28342      .   S
    C31    O79       1.26743      .   S
    C31    O67       1.28343      .   S
    C29    O77       1.26743      .   S
    C29    O65       1.28343      .   S
    C9     O44       1.27249      .   S
    C9     O19       1.27028      .   S
    C11    O17       1.27104      .   S
    C11    O21       1.26665      .   S
    C8     O16       1.26997  1_545   S
    C8     O20       1.26583  1_545   S
    C10    O18       1.26997  1_545   S
    C10    O22       1.26583  1_545   S
    O59    C24       1.26658      .   S
    O58    C2        1.26654      .   S
    O57    C1        1.26658      .   S
    O56    C0        1.26654      .   S
    O52    C0        1.27101      .   S
    O53    C1        1.27101      .   S
    O54    C2        1.27101      .   S
    O55    C24       1.27102      .   S
    O82    C38       1.28370      .   S
    O80    C36       1.28370      .   S
    O81    C37       1.28361      .   S
    O83    C39       1.28362      .   S
    O92    C36       1.26777      .   S
    O94    C38       1.26725      .   S
    O95    C39       1.26745      .   S
    O93    C37       1.26723      .   S
