# CIF file generated by openbabel 2.4.90, see http://openbabel.sf.net
data_I
_chemical_name_common ''
_cell_length_a 11.298
_cell_length_b 24.39
_cell_length_c 22.765
_cell_angle_alpha 99.196
_cell_angle_beta 89.99
_cell_angle_gamma 89.963
_space_group_name_H-M_alt 'P 1'
_space_group_name_Hall 'P 1'
loop_
    _symmetry_equiv_pos_as_xyz
    x,y,z
loop_
    _atom_site_label
    _atom_site_type_symbol
    _atom_site_fract_x
    _atom_site_fract_y
    _atom_site_fract_z
    _atom_site_occupancy
    Ca0     Ca   0.38283   0.81746   0.72330   1.000
    Ca1     Ca   0.88285   0.31745   0.72328   1.000
    Ca2     Ca   0.88282   0.81746   0.72330   1.000
    Ca3     Ca   0.13291   0.43247   0.77676   1.000
    Ca4     Ca   0.13288   0.93246   0.77679   1.000
    Ca5     Ca   0.63290   0.43247   0.77676   1.000
    Ca6     Ca   0.63288   0.93247   0.77679   1.000
    Ca7     Ca   0.11714   0.18256   0.27669   1.000
    Ca8     Ca   0.11711   0.68257   0.27671   1.000
    Ca9     Ca   0.61713   0.18256   0.27669   1.000
    Ca10    Ca   0.61711   0.68257   0.27671   1.000
    Ca11    Ca   0.36710   0.06756   0.22319   1.000
    Ca12    Ca   0.36707   0.56755   0.22322   1.000
    Ca13    Ca   0.86710   0.06756   0.22319   1.000
    Ca14    Ca   0.86707   0.56755   0.22322   1.000
    Ca15    Ca   0.38286   0.31745   0.72328   1.000
    C16     C    0.12687   0.24721   0.76655   1.000
    C17     C    0.12684   0.74722   0.76655   1.000
    C18     C    0.62686   0.24721   0.76655   1.000
    C19     C    0.12315   0.49732   0.26658   1.000
    C20     C    0.12319   0.99733   0.26655   1.000
    C21     C    0.62315   0.49732   0.26658   1.000
    C22     C    0.62319   0.99733   0.26655   1.000
    C23     C    0.13597   0.35917   0.65380   1.000
    C24     C    0.37680   0.00269   0.73343   1.000
    C25     C    0.37684   0.50270   0.73300   1.000
    C26     C    0.87680   0.00269   0.73343   1.000
    C27     C    0.87683   0.50270   0.73339   1.000
    C28     C    0.36403   0.14082   0.34616   1.000
    C29     C    0.36400   0.64085   0.34610   1.000
    C30     C    0.86402   0.14082   0.34616   1.000
    C31     C    0.86400   0.64085   0.34610   1.000
    O32     O    0.26879   0.99061   0.74000   1.000
    O33     O    0.76884   0.49061   0.74028   1.000
    O34     O    0.76879   0.99061   0.74000   1.000
    O35     O    0.46594   0.47895   0.75191   1.000
    O36     O    0.46589   0.97895   0.75190   1.000
    O37     O    0.96593   0.47895   0.75191   1.000
    O38     O    0.96588   0.97895   0.75190   1.000
    O39     O    0.25592   0.13706   0.33122   1.000
    C40     C    0.62683   0.74722   0.76655   1.000
    C41     C    0.11394   0.10923   0.15359   1.000
    C42     C    0.11393   0.60922   0.15362   1.000
    C43     C    0.61394   0.10923   0.15359   1.000
    C44     C    0.61393   0.60922   0.15362   1.000
    C45     C    0.13594   0.85920   0.65383   1.000
    C46     C    0.63597   0.35917   0.65380   1.000
    C47     C    0.63593   0.85920   0.65383   1.000
    C48     C    0.37312   0.25280   0.23344   1.000
    C49     C    0.37310   0.75280   0.23343   1.000
    C50     C    0.87312   0.25280   0.23344   1.000
    C51     C    0.87309   0.75280   0.23343   1.000
    C52     C    0.38603   0.39080   0.84636   1.000
    C53     C    0.38602   0.89080   0.84639   1.000
    C54     C    0.88602   0.39080   0.84636   1.000
    C55     C    0.88602   0.89080   0.84639   1.000
    O56     O    0.44950   0.13165   0.30873   1.000
    O57     O    0.44946   0.63167   0.30874   1.000
    O58     O    0.94950   0.13165   0.30873   1.000
    O59     O    0.94945   0.63167   0.30874   1.000
    O60     O    0.26884   0.49061   0.74028   1.000
    O61     O    0.25588   0.63710   0.33126   1.000
    O62     O    0.75592   0.13706   0.33122   1.000
    O63     O    0.75588   0.63710   0.33126   1.000
    O64     O    0.19932   0.11845   0.19106   1.000
    O65     O    0.19932   0.61845   0.19108   1.000
    O66     O    0.69932   0.11845   0.19106   1.000
    O67     O    0.69931   0.61845   0.19108   1.000
    O68     O    0.01884   0.25934   0.75972   1.000
    O69     O    0.01881   0.75935   0.75972   1.000
    O70     O    0.51884   0.25934   0.75972   1.000
    O71     O    0.51881   0.75935   0.75972   1.000
    O72     O    0.21590   0.27100   0.74807   1.000
    O73     O    0.21588   0.77101   0.74807   1.000
    O74     O    0.71589   0.27100   0.74807   1.000
    O75     O    0.71587   0.77101   0.74807   1.000
    O76     O    0.00577   0.11293   0.16844   1.000
    O77     O    0.00577   0.61292   0.16848   1.000
    O78     O    0.50577   0.11293   0.16844   1.000
    O79     O    0.50576   0.61292   0.16848   1.000
    O80     O    0.05051   0.36835   0.69124   1.000
    O81     O    0.05046   0.86836   0.69126   1.000
    O82     O    0.55051   0.36835   0.69124   1.000
    O83     O    0.55046   0.86836   0.69126   1.000
    O84     O    0.23121   0.00941   0.25969   1.000
    O85     O    0.23115   0.50941   0.25971   1.000
    O86     O    0.73120   0.00941   0.25969   1.000
    O87     O    0.73115   0.50941   0.25970   1.000
    O88     O    0.03411   0.02107   0.24801   1.000
    O89     O    0.03406   0.52107   0.24806   1.000
    O90     O    0.53411   0.02107   0.24801   1.000
    O91     O    0.53405   0.52107   0.24806   1.000
    O92     O    0.24409   0.36293   0.66872   1.000
    O93     O    0.24405   0.86296   0.66878   1.000
    O94     O    0.74408   0.36293   0.66872   1.000
    O95     O    0.74404   0.86296   0.66878   1.000
    O96     O    0.30064   0.38157   0.80890   1.000
    O97     O    0.30064   0.88157   0.80893   1.000
    O98     O    0.80063   0.38157   0.80890   1.000
    O99     O    0.80063   0.88157   0.80893   1.000
    O100    O    0.48114   0.24067   0.24027   1.000
    O101    O    0.48112   0.74067   0.24026   1.000
    O102    O    0.98114   0.24067   0.24027   1.000
    O103    O    0.98111   0.74067   0.24026   1.000
    O104    O    0.28408   0.22901   0.25191   1.000
    O105    O    0.28406   0.72902   0.25191   1.000
    O106    O    0.78408   0.22901   0.25191   1.000
    O107    O    0.78405   0.72902   0.25191   1.000
    O108    O    0.49419   0.38710   0.83140   1.000
    O109    O    0.49419   0.88710   0.83154   1.000
    O110    O    0.99418   0.38710   0.83149   1.000
    O111    O    0.99418   0.88710   0.83150   1.000
    Ts112   Ts   0.39019   0.79344   0.69300   1.000
    Ts113   Ts   0.89022   0.29342   0.69299   1.000
    Ts114   Ts   0.89018   0.79344   0.69300   1.000
    Ts115   Ts   0.14020   0.45649   0.80702   1.000
    Ts116   Ts   0.14018   0.95648   0.80704   1.000
    Ts117   Ts   0.64019   0.45649   0.80702   1.000
    Ts118   Ts   0.64017   0.95648   0.80704   1.000
    Ts119   Ts   0.10977   0.20658   0.30699   1.000
    Ts120   Ts   0.10974   0.70660   0.30700   1.000
    Ts121   Ts   0.60976   0.20658   0.30699   1.000
    Ts122   Ts   0.60973   0.70660   0.30700   1.000
    Ts123   Ts   0.35981   0.04354   0.19295   1.000
    Ts124   Ts   0.35979   0.54353   0.19297   1.000
    Ts125   Ts   0.85980   0.04354   0.19295   1.000
    Ts126   Ts   0.85978   0.54353   0.19297   1.000
    Ts127   Ts   0.39022   0.29342   0.69299   1.000
    Og128   Og   0.13502   0.23114   0.77750   1.000
    Og129   Og   0.13499   0.73115   0.77750   1.000
    Og130   Og   0.63501   0.23114   0.77750   1.000
    Og131   Og   0.11502   0.48127   0.27756   1.000
    Og132   Og   0.11506   0.98129   0.27737   1.000
    Og133   Og   0.61501   0.48127   0.27756   1.000
    Og134   Og   0.61505   0.98129   0.27753   1.000
    Og135   Og   0.12595   0.35478   0.63210   1.000
    Og136   Og   0.38494   0.01874   0.72245   1.000
    Og137   Og   0.38497   0.51875   0.72216   1.000
    Og138   Og   0.88493   0.01874   0.72245   1.000
    Og139   Og   0.88496   0.51875   0.72242   1.000
    Og140   Og   0.37404   0.14521   0.36786   1.000
    Og141   Og   0.37402   0.64525   0.36783   1.000
    Og142   Og   0.87403   0.14521   0.36786   1.000
    Og143   Og   0.87401   0.64525   0.36783   1.000
    Og144   Og   0.63498   0.73115   0.77750   1.000
    Og145   Og   0.12401   0.10483   0.13190   1.000
    Og146   Og   0.12399   0.60482   0.13192   1.000
    Og147   Og   0.62400   0.10483   0.13190   1.000
    Og148   Og   0.62399   0.60482   0.13192   1.000
    Og149   Og   0.12593   0.85482   0.63213   1.000
    Og150   Og   0.62595   0.35478   0.63210   1.000
    Og151   Og   0.62593   0.85482   0.63213   1.000
    Og152   Og   0.36497   0.26887   0.22249   1.000
    Og153   Og   0.36494   0.76887   0.22248   1.000
    Og154   Og   0.86497   0.26887   0.22249   1.000
    Og155   Og   0.86494   0.76887   0.22248   1.000
    Og156   Og   0.37598   0.39520   0.86806   1.000
    Og157   Og   0.37596   0.89520   0.86808   1.000
    Og158   Og   0.87597   0.39520   0.86806   1.000
    Og159   Og   0.87596   0.89520   0.86808   1.000
loop_
    _geom_bond_atom_site_label_1
    _geom_bond_atom_site_label_2
    _geom_bond_distance
    _geom_bond_site_symmetry_2
    _ccdc_geom_bond_type
    C43    O78       1.26728      .   S
    C43    O66       1.28370      .   S
    C41    O76       1.26728      .   S
    C41    O64       1.28370      .   S
    C44    O79       1.26725      .   S
    C44    O67       1.28363      .   S
    C42    O77       1.26727      .   S
    C42    O65       1.28362      .   S
    Ca13   O88       2.31683  1_655   S
    Ca13   O86       2.33193      .   S
    Ca11   O90       2.31671      .   S
    Ca11   O84       2.33193      .   S
    Ca14   O89       2.31664  1_655   S
    Ca14   O87       2.33187      .   S
    Ca12   O91       2.31654      .   S
    Ca12   O85       2.33198      .   S
    C49    O101      1.27100      .   S
    C49    O105      1.26655      .   S
    C51    O103      1.27101      .   S
    C51    O107      1.26655      .   S
    C50    O102      1.27101      .   S
    C50    O106      1.26652      .   S
    C48    O100      1.27100      .   S
    C48    O104      1.26652      .   S
    O103   Ca8       2.33043  1_655   S
    O101   Ca10      2.33034      .   S
    O102   Ca7       2.33024  1_655   S
    O100   Ca9       2.33016      .   S
    O90    C22       1.26640  1_545   S
    O88    C20       1.26641  1_545   S
    O91    C21       1.26655      .   S
    O89    C19       1.26656      .   S
    O104   Ca7       2.31643      .   S
    O107   Ca10      2.31653      .   S
    O106   Ca9       2.31645      .   S
    O105   Ca8       2.31654      .   S
    O84    C20       1.27103  1_545   S
    O86    C22       1.27104  1_545   S
    O87    C21       1.27102      .   S
    O85    C19       1.27100      .   S
    O56    C28       1.28342      .   S
    O58    C30       1.28342      .   S
    O59    C31       1.28227      .   S
    O57    C29       1.28228      .   S
    O62    C30       1.26738      .   S
    O39    C28       1.26737      .   S
    O61    C29       1.26693      .   S
    O63    C31       1.26693      .   S
    C46    O94       1.26738      .   S
    C46    O82       1.28342      .   S
    C23    O92       1.26738      .   S
    C23    O80       1.28342      .   S
    C47    O95       1.26743      .   S
    C47    O83       1.28343      .   S
    C45    O93       1.26743      .   S
    C45    O81       1.28343      .   S
    Ca15   O72       2.31658      .   S
    Ca15   O70       2.33028      .   S
    Ca1    O74       2.31658      .   S
    Ca1    O68       2.33037  1_655   S
    Ca0    O73       2.31648      .   S
    Ca0    O71       2.33018      .   S
    Ca2    O75       2.31648      .   S
    Ca2    O69       2.33029  1_655   S
    C25    O60       1.27249      .   S
    C25    O35       1.27028      .   S
    C27    O33       1.27104      .   S
    C27    O37       1.26665      .   S
    C24    O32       1.26997  1_545   S
    C24    O36       1.26583  1_545   S
    C26    O34       1.26997  1_545   S
    C26    O38       1.26583  1_545   S
    O32    Ca4       2.33501      .   S
    O34    Ca6       2.33501      .   S
    O33    Ca5       2.33196      .   S
    O60    Ca3       2.33196      .   S
    O75    C40       1.26658      .   S
    O74    C18       1.26654      .   S
    O73    C17       1.26658      .   S
    O72    C16       1.26654      .   S
    O38    Ca4       2.31717  1_655   S
    O36    Ca6       2.31705      .   S
    O37    Ca3       2.31655  1_655   S
    O35    Ca5       2.31642      .   S
    O68    C16       1.27101      .   S
    O69    C17       1.27101      .   S
    O70    C18       1.27101      .   S
    O71    C40       1.27102      .   S
    O98    C54       1.28370      .   S
    O96    C52       1.28370      .   S
    O97    C53       1.28361      .   S
    O99    C55       1.28362      .   S
    O108   C52       1.26777      .   S
    O110   C54       1.26725      .   S
    O111   C55       1.26745      .   S
    O109   C53       1.26723      .   S
    O56    Ca9       2.43972      .   S
    O56    Ca11      2.47632      .   S
    O57    Ca10      2.43980      .   S
    O57    Ca12      2.47622      .   S
    O58    Ca7       2.43983  1_655   S
    O58    Ca13      2.47633      .   S
    O59    Ca8       2.43989  1_655   S
    O59    Ca14      2.47623      .   S
    O39    Ca7       2.38110      .   S
    O61    Ca8       2.38102      .   S
    O62    Ca9       2.38110      .   S
    O63    Ca10      2.38102      .   S
    O64    Ca7       2.47600      .   S
    O64    Ca11      2.44058      .   S
    O65    Ca8       2.47629      .   S
    O65    Ca12      2.44049      .   S
    O66    Ca9       2.47599      .   S
    O66    Ca13      2.44057      .   S
    O67    Ca10      2.47628      .   S
    O67    Ca14      2.44050      .   S
    O76    Ca13      2.38225  1_455   S
    O77    Ca14      2.38233  1_455   S
    O78    Ca11      2.38215      .   S
    O79    Ca12      2.38222      .   S
    O80    Ca1       2.43993  1_455   S
    O80    Ca3       2.47634      .   S
    O81    Ca2       2.43976  1_455   S
    O81    Ca4       2.47633      .   S
    O82    Ca15      2.43984      .   S
    O82    Ca5       2.47632      .   S
    O83    Ca0       2.43967      .   S
    O83    Ca6       2.47633      .   S
    O92    Ca15      2.38121      .   S
    O93    Ca0       2.38101      .   S
    O94    Ca1       2.38119      .   S
    O95    Ca2       2.38101      .   S
    O96    Ca15      2.47616      .   S
    O96    Ca3       2.44028      .   S
    O97    Ca0       2.47598      .   S
    O97    Ca4       2.44050      .   S
    O98    Ca1       2.47614      .   S
    O98    Ca5       2.44030      .   S
    O99    Ca2       2.47599      .   S
    O99    Ca6       2.44051      .   S
    O108   Ca5       2.38104      .   S
    O109   Ca6       2.38228      .   S
    O110   Ca3       2.38234  1_655   S
    O111   Ca4       2.38183  1_655   S
    Ca0    Ts112     0.83464      .   S
    Ca1    Ts113     0.83469      .   S
    Ca2    Ts114     0.83464      .   S
    Ca3    Ts115     0.83395      .   S
    Ca4    Ts116     0.83378      .   S
    Ca5    Ts117     0.83395      .   S
    Ca6    Ts118     0.83377      .   S
    Ca7    Ts119     0.83467      .   S
    Ca8    Ts120     0.83473      .   S
    Ca9    Ts121     0.83468      .   S
    Ca10   Ts122     0.83473      .   S
    Ca11   Ts123     0.83374      .   S
    Ca12   Ts124     0.83391      .   S
    Ca13   Ts125     0.83374      .   S
    Ca14   Ts126     0.83391      .   S
    Ca15   Ts127     0.83469      .   S
    C16    Og128     0.50539      .   S
    C17    Og129     0.50538      .   S
    C18    Og130     0.50538      .   S
    C19    Og131     0.50538      .   S
    C20    Og132     0.50304      .   S
    C21    Og133     0.50538      .   S
    C22    Og134     0.50533      .   S
    C23    Og135     0.50144      .   S
    C24    Og136     0.50537      .   S
    C25    Og137     0.50353      .   S
    C26    Og138     0.50537      .   S
    C27    Og139     0.50535      .   S
    C28    Og140     0.50149      .   S
    C29    Og141     0.50209      .   S
    C30    Og142     0.50149      .   S
    C31    Og143     0.50209      .   S
    C40    Og144     0.50537      .   S
    C41    Og145     0.50135      .   S
    C42    Og146     0.50141      .   S
    C43    Og147     0.50135      .   S
    C44    Og148     0.50141      .   S
    C45    Og149     0.50148      .   S
    C46    Og150     0.50144      .   S
    C47    Og151     0.50148      .   S
    C48    Og152     0.50539      .   S
    C49    Og153     0.50537      .   S
    C50    Og154     0.50538      .   S
    C51    Og155     0.50537      .   S
    C52    Og156     0.50141      .   S
    C53    Og157     0.50135      .   S
    C54    Og158     0.50141      .   S
    C55    Og159     0.50135      .   S
