# CIF file generated by openbabel 2.4.90, see http://openbabel.sf.net
data_I
_chemical_name_common ''
_cell_length_a 11.298
_cell_length_b 24.39
_cell_length_c 22.765
_cell_angle_alpha 99.196
_cell_angle_beta 89.99
_cell_angle_gamma 89.963
_space_group_name_H-M_alt 'P 1'
_space_group_name_Hall 'P 1'
loop_
    _symmetry_equiv_pos_as_xyz
    x,y,z
loop_
    _atom_site_label
    _atom_site_type_symbol
    _atom_site_fract_x
    _atom_site_fract_y
    _atom_site_fract_z
    _atom_site_occupancy
    C0      C    0.12687   0.24721   0.76655   1.000
    C1      C    0.12684   0.74722   0.76655   1.000
    C2      C    0.62686   0.24721   0.76655   1.000
    C3      C    0.12315   0.49732   0.26658   1.000
    C4      C    0.12319   0.99733   0.26655   1.000
    C5      C    0.62315   0.49732   0.26658   1.000
    C6      C    0.62319   0.99733   0.26655   1.000
    C7      C    0.13597   0.35917   0.65380   1.000
    C8      C    0.37680   0.00269   0.73343   1.000
    C9      C    0.37684   0.50270   0.73300   1.000
    C10     C    0.87680   0.00269   0.73343   1.000
    C11     C    0.87683   0.50270   0.73339   1.000
    C12     C    0.36403   0.14082   0.34616   1.000
    C13     C    0.36400   0.64085   0.34610   1.000
    C14     C    0.86402   0.14082   0.34616   1.000
    C15     C    0.86400   0.64085   0.34610   1.000
    C16     C    0.62683   0.74722   0.76655   1.000
    C17     C    0.11394   0.10923   0.15359   1.000
    C18     C    0.11393   0.60922   0.15362   1.000
    C19     C    0.61394   0.10923   0.15359   1.000
    C20     C    0.61393   0.60922   0.15362   1.000
    C21     C    0.13594   0.85920   0.65383   1.000
    C22     C    0.63597   0.35917   0.65380   1.000
    C23     C    0.63593   0.85920   0.65383   1.000
    C24     C    0.37312   0.25280   0.23344   1.000
    C25     C    0.37310   0.75280   0.23343   1.000
    C26     C    0.87312   0.25280   0.23344   1.000
    C27     C    0.87309   0.75280   0.23343   1.000
    C28     C    0.38603   0.39080   0.84636   1.000
    C29     C    0.38602   0.89080   0.84639   1.000
    C30     C    0.88602   0.39080   0.84636   1.000
    C31     C    0.88602   0.89080   0.84639   1.000
