# CIF file generated by openbabel 2.4.90, see http://openbabel.sf.net
data_I
_chemical_name_common ''
_cell_length_a 11.298
_cell_length_b 24.39
_cell_length_c 22.765
_cell_angle_alpha 99.196
_cell_angle_beta 89.99
_cell_angle_gamma 89.963
_space_group_name_H-M_alt 'P 1'
_space_group_name_Hall 'P 1'
loop_
    _symmetry_equiv_pos_as_xyz
    x,y,z
loop_
    _atom_site_label
    _atom_site_type_symbol
    _atom_site_fract_x
    _atom_site_fract_y
    _atom_site_fract_z
    _atom_site_occupancy
    Zr0     Zr   0.38286   0.31745   0.72328   1.000
    Zr1     Zr   0.38283   0.81746   0.72330   1.000
    Zr2     Zr   0.88285   0.31745   0.72328   1.000
    Zr3     Zr   0.88282   0.81746   0.72330   1.000
    Zr4     Zr   0.13291   0.43247   0.77676   1.000
    Zr5     Zr   0.13288   0.93246   0.77679   1.000
    Zr6     Zr   0.63290   0.43247   0.77676   1.000
    Zr7     Zr   0.63288   0.93247   0.77679   1.000
    Zr8     Zr   0.11714   0.18256   0.27669   1.000
    Zr9     Zr   0.11711   0.68257   0.27671   1.000
    Zr10    Zr   0.61713   0.18256   0.27669   1.000
    Zr11    Zr   0.61711   0.68257   0.27671   1.000
    Zr12    Zr   0.36710   0.06756   0.22319   1.000
    Zr13    Zr   0.36707   0.56755   0.22322   1.000
    Zr14    Zr   0.86710   0.06756   0.22319   1.000
    Zr15    Zr   0.86707   0.56755   0.22322   1.000
    N16     N    0.68309   0.60723   0.92186   1.000
    O17     O    0.66346   0.53786   0.87200   1.000
    N18     N    0.18313   0.10722   0.92183   1.000
    O19     O    0.16348   0.03785   0.87199   1.000
    N20     N    0.68312   0.10722   0.92184   1.000
    O21     O    0.66347   0.03785   0.87200   1.000
    N22     N    0.43303   0.64267   0.57798   1.000
    O23     O    0.41345   0.71205   0.62792   1.000
    N24     N    0.31688   0.39279   0.07812   1.000
    O25     O    0.33651   0.46216   0.12798   1.000
    N26     N    0.31684   0.89281   0.07814   1.000
    O27     O    0.33650   0.96217   0.12798   1.000
    N28     N    0.06694   0.35736   0.42200   1.000
    O29     O    0.08651   0.28798   0.37207   1.000
    N30     N    0.93302   0.14263   0.57797   1.000
    O31     O    0.91346   0.21202   0.62791   1.000
    N32     N    0.56694   0.35736   0.42200   1.000
    O33     O    0.58651   0.28798   0.37207   1.000
    N34     N    0.81687   0.39280   0.07812   1.000
    O35     O    0.83650   0.46216   0.12798   1.000
    N36     N    0.81684   0.89281   0.07814   1.000
    O37     O    0.83650   0.96217   0.12798   1.000
    N38     N    0.43302   0.14263   0.57797   1.000
    O39     O    0.41346   0.21202   0.62791   1.000
    N40     N    0.18310   0.60723   0.92186   1.000
    O41     O    0.16347   0.53786   0.87200   1.000
    N42     N    0.93303   0.64267   0.57798   1.000
    O43     O    0.91345   0.71205   0.62792   1.000
    N44     N    0.56696   0.85741   0.42200   1.000
    O45     O    0.58650   0.78801   0.37208   1.000
    N46     N    0.06696   0.85741   0.42199   1.000
    O47     O    0.08650   0.78801   0.37207   1.000
    C48     C    0.12054   0.25919   0.75811   1.000
    O49     O    0.14082   0.21217   0.80526   1.000
    O50     O    0.03569   0.27379   0.74981   1.000
    O51     O    0.20996   0.27670   0.74689   1.000
    C52     C    0.64352   0.36348   0.67125   1.000
    O53     O    0.55510   0.35319   0.68926   1.000
    O54     O    0.61761   0.38195   0.70263   1.000
    O55     O    0.72849   0.35184   0.68363   1.000
    O56     O    0.61873   0.35923   0.59644   1.000
    C57     C    0.87053   0.49075   0.74186   1.000
    O58     O    0.78570   0.47615   0.75019   1.000
    O59     O    0.89078   0.53774   0.69466   1.000
    O60     O    0.95998   0.47323   0.75310   1.000
    C61     C    0.39362   0.38649   0.82889   1.000
    O62     O    0.47858   0.39814   0.81648   1.000
    O63     O    0.36877   0.39079   0.90370   1.000
    O64     O    0.36768   0.36800   0.79749   1.000
    O65     O    0.30520   0.39676   0.81086   1.000
    C66     C    0.89361   0.38649   0.82892   1.000
    O67     O    0.97858   0.39814   0.81652   1.000
    O68     O    0.86876   0.39079   0.90372   1.000
    O69     O    0.86768   0.36800   0.79750   1.000
    O70     O    0.80519   0.39676   0.81087   1.000
    C71     C    0.37054   0.49075   0.74173   1.000
    O72     O    0.39079   0.53774   0.69454   1.000
    O73     O    0.28571   0.47615   0.75013   1.000
    O74     O    0.45998   0.47323   0.75303   1.000
    C75     C    0.14353   0.36348   0.67125   1.000
    O76     O    0.11873   0.35923   0.59644   1.000
    O77     O    0.22850   0.35184   0.68363   1.000
    O78     O    0.05510   0.35319   0.68926   1.000
    O79     O    0.11762   0.38195   0.70263   1.000
    C80     C    0.62053   0.25919   0.75811   1.000
    O81     O    0.53569   0.27379   0.74981   1.000
    O82     O    0.64082   0.21217   0.80526   1.000
    O83     O    0.70995   0.27670   0.74689   1.000
    C84     C    0.87049   0.99075   0.74178   1.000
    O85     O    0.78566   0.97614   0.75009   1.000
    O86     O    0.89075   0.03772   0.69462   1.000
    O87     O    0.95993   0.97323   0.75306   1.000
    C88     C    0.89361   0.88649   0.82894   1.000
    O89     O    0.86767   0.86800   0.79753   1.000
    O90     O    0.80518   0.89675   0.81090   1.000
    O91     O    0.97857   0.89813   0.81654   1.000
    O92     O    0.86875   0.89079   0.90374   1.000
    C93     C    0.39362   0.88649   0.82895   1.000
    O94     O    0.36875   0.89079   0.90374   1.000
    O95     O    0.47858   0.89813   0.81656   1.000
    O96     O    0.36768   0.86800   0.79753   1.000
    O97     O    0.30519   0.89675   0.81091   1.000
    C98     C    0.37049   0.99075   0.74178   1.000
    O99     O    0.28566   0.97614   0.75009   1.000
    O100    O    0.45994   0.97323   0.75306   1.000
    O101    O    0.39075   0.03772   0.69462   1.000
    C102    C    0.12051   0.75919   0.75811   1.000
    O103    O    0.03566   0.77380   0.74981   1.000
    O104    O    0.14079   0.71218   0.80527   1.000
    O105    O    0.20993   0.77671   0.74690   1.000
    C106    C    0.64348   0.86351   0.67129   1.000
    O107    O    0.61871   0.85926   0.59646   1.000
    O108    O    0.55506   0.85321   0.68929   1.000
    O109    O    0.61757   0.88196   0.70266   1.000
    O110    O    0.72845   0.85186   0.68367   1.000
    C111    C    0.14348   0.86351   0.67129   1.000
    O112    O    0.05506   0.85321   0.68929   1.000
    O113    O    0.11758   0.88196   0.70266   1.000
    O114    O    0.11871   0.85926   0.59646   1.000
    O115    O    0.22846   0.85186   0.68367   1.000
    C116    C    0.62050   0.75919   0.75811   1.000
    O117    O    0.64079   0.71218   0.80527   1.000
    O118    O    0.70992   0.77671   0.74690   1.000
    O119    O    0.53566   0.77380   0.74981   1.000
    C120    C    0.10634   0.61353   0.17106   1.000
    O121    O    0.02138   0.60188   0.18346   1.000
    O122    O    0.13228   0.63202   0.20248   1.000
    O123    O    0.19477   0.60326   0.18911   1.000
    O124    O    0.13120   0.60923   0.09626   1.000
    C125    C    0.85644   0.63654   0.32870   1.000
    O126    O    0.94486   0.64683   0.31071   1.000
    O127    O    0.88235   0.61807   0.29734   1.000
    O128    O    0.88123   0.64080   0.40352   1.000
    O129    O    0.77147   0.64819   0.31634   1.000
    C130    C    0.87942   0.74083   0.24187   1.000
    O131    O    0.79000   0.72331   0.25309   1.000
    O132    O    0.85913   0.78784   0.19472   1.000
    O133    O    0.96427   0.72623   0.25018   1.000
    C134    C    0.37943   0.74083   0.24187   1.000
    O135    O    0.29001   0.72331   0.25309   1.000
    O136    O    0.46427   0.72623   0.25018   1.000
    O137    O    0.35914   0.78784   0.19472   1.000
    C138    C    0.62945   0.50927   0.25811   1.000
    O139    O    0.71428   0.52387   0.24979   1.000
    O140    O    0.54000   0.52679   0.24688   1.000
    O141    O    0.60920   0.46228   0.30532   1.000
    C142    C    0.12945   0.50926   0.25812   1.000
    O143    O    0.04001   0.52679   0.24688   1.000
    O144    O    0.10920   0.46228   0.30532   1.000
    O145    O    0.21428   0.52387   0.24979   1.000
    C146    C    0.60633   0.61353   0.17106   1.000
    O147    O    0.63119   0.60923   0.09626   1.000
    O148    O    0.63227   0.63202   0.20248   1.000
    O149    O    0.69476   0.60326   0.18911   1.000
    O150    O    0.52137   0.60188   0.18346   1.000
    C151    C    0.35645   0.63654   0.32870   1.000
    O152    O    0.38236   0.61807   0.29734   1.000
    O153    O    0.44486   0.64683   0.31071   1.000
    O154    O    0.38124   0.64080   0.40352   1.000
    O155    O    0.27147   0.64819   0.31634   1.000
    C156    C    0.10635   0.11353   0.17103   1.000
    O157    O    0.02139   0.10189   0.18342   1.000
    O158    O    0.13121   0.10923   0.09623   1.000
    O159    O    0.13229   0.13202   0.20245   1.000
    O160    O    0.19478   0.10327   0.18908   1.000
    C161    C    0.87944   0.24082   0.24187   1.000
    O162    O    0.85916   0.28784   0.19472   1.000
    O163    O    0.96429   0.22622   0.25018   1.000
    O164    O    0.79002   0.22330   0.25309   1.000
    C165    C    0.85648   0.13651   0.32870   1.000
    O166    O    0.88125   0.14076   0.40352   1.000
    O167    O    0.94490   0.14681   0.31071   1.000
    O168    O    0.88239   0.11806   0.29733   1.000
    O169    O    0.77150   0.14816   0.31633   1.000
    C170    C    0.62950   0.00927   0.25808   1.000
    O171    O    0.54005   0.02679   0.24684   1.000
    O172    O    0.60923   0.96230   0.30530   1.000
    O173    O    0.71432   0.02388   0.24976   1.000
    C174    C    0.37945   0.24082   0.24187   1.000
    O175    O    0.35917   0.28784   0.19472   1.000
    O176    O    0.46429   0.22622   0.25018   1.000
    O177    O    0.29003   0.22330   0.25309   1.000
    C178    C    0.12951   0.00927   0.25808   1.000
    O179    O    0.10924   0.96230   0.30523   1.000
    O180    O    0.21433   0.02388   0.24976   1.000
    O181    O    0.04006   0.02679   0.24684   1.000
    C182    C    0.60634   0.11353   0.17103   1.000
    O183    O    0.52139   0.10189   0.18342   1.000
    O184    O    0.63121   0.10923   0.09624   1.000
    O185    O    0.63228   0.13202   0.20245   1.000
    O186    O    0.69477   0.10327   0.18908   1.000
    C187    C    0.35648   0.13651   0.32870   1.000
    O188    O    0.38126   0.14076   0.40352   1.000
    O189    O    0.27151   0.14816   0.31633   1.000
    O190    O    0.44490   0.14681   0.31071   1.000
    O191    O    0.38239   0.11806   0.29733   1.000
loop_
    _geom_bond_atom_site_label_1
    _geom_bond_atom_site_label_2
    _geom_bond_distance
    _geom_bond_site_symmetry_2
    _ccdc_geom_bond_type
    N16    O17       1.89379      .   S
    Zr6    O17       3.10606      .   S
    N18    O19       1.89357      .   S
    Zr5    O19       3.10557  1_565   S
    N20    O21       1.89365      .   S
    Zr7    O21       3.10566  1_565   S
    N22    O23       1.89451      .   S
    Zr1    O23       3.10783      .   S
    N24    O25       1.89380      .   S
    Zr13   O25       3.10606      .   S
    N26    O27       1.89366      .   S
    Zr12   O27       3.10565  1_545   S
    N28    O29       1.89457      .   S
    Zr8    O29       3.10793      .   S
    N30    O31       1.89466      .   S
    Zr2    O31       3.10809      .   S
    N32    O33       1.89457      .   S
    Zr10   O33       3.10795      .   S
    N34    O35       1.89379      .   S
    Zr15   O35       3.10603      .   S
    N36    O37       1.89366      .   S
    Zr14   O37       3.10565  1_545   S
    N38    O39       1.89466      .   S
    Zr0    O39       3.10808      .   S
    N40    O41       1.89379      .   S
    Zr4    O41       3.10605      .   S
    N42    O43       1.89453      .   S
    Zr3    O43       3.10785      .   S
    N44    O45       1.89467      .   S
    Zr11   O45       3.10814      .   S
    N46    O47       1.89458      .   S
    Zr9    O47       3.10801      .   S
    C48    O49       1.70649      .   S
    N18    O49       3.99924      .   S
    C48    O50       1.05008      .   S
    Zr2    O50       2.16421  1_655   S
    C48    O51       1.14186      .   S
    Zr0    O51       2.29460      .   S
    C52    O53       1.12338      .   S
    Zr0    O53       2.31610      .   S
    C52    O54       0.83397      .   S
    Zr6    O54       1.93188      .   S
    C52    O55       1.05216      .   S
    Zr2    O55       2.19096      .   S
    C52    O56       1.71276      .   S
    N32    O56       4.00705      .   S
    C57    O58       1.05045      .   S
    Zr6    O58       2.16537      .   S
    C57    O59       1.70710      .   S
    N42    O59       4.00092      .   S
    C57    O60       1.14183      .   S
    Zr4    O60       2.29453  1_455   S
    C61    O62       1.05251      .   S
    Zr6    O62       2.19138      .   S
    C61    O63       1.71264      .   S
    N24    O63       4.00618  1_554   S
    C61    O64       0.83508      .   S
    Zr0    O64       1.93324      .   S
    C61    O65       1.12330      .   S
    Zr4    O65       2.31615      .   S
    C66    O67       1.05249      .   S
    Zr4    O67       2.19187  1_455   S
    C66    O68       1.71232      .   S
    N34    O68       4.00590  1_554   S
    C66    O69       0.83535      .   S
    Zr2    O69       1.93350      .   S
    C66    O70       1.12344      .   S
    Zr6    O70       2.31630      .   S
    C71    O72       1.70682      .   S
    N22    O72       3.99891      .   S
    C71    O73       1.05080      .   S
    Zr4    O73       2.16590      .   S
    C71    O74       1.14222      .   S
    Zr6    O74       2.29488      .   S
    C75    O76       1.71276      .   S
    N28    O76       4.00707      .   S
    C75    O77       1.05216      .   S
    Zr0    O77       2.19097      .   S
    C75    O78       1.12341      .   S
    Zr2    O78       2.31619  1_655   S
    C75    O79       0.83396      .   S
    Zr4    O79       1.93189      .   S
    C80    O81       1.05005      .   S
    Zr0    O81       2.16413      .   S
    C80    O82       1.70656      .   S
    N20    O82       3.99945      .   S
    C80    O83       1.14186      .   S
    Zr2    O83       2.29460      .   S
    C84    O85       1.05029      .   S
    Zr7    O85       2.16633      .   S
    C84    O86       1.70607  1_565   S
    N30    O86       3.99997      .   S
    C84    O87       1.14214      .   S
    Zr5    O87       2.29516  1_455   S
    C88    O89       0.83532      .   S
    Zr3    O89       1.93341      .   S
    C88    O90       1.12346      .   S
    Zr7    O90       2.31644      .   S
    C88    O91       1.05243      .   S
    Zr5    O91       2.19157  1_455   S
    C88    O92       1.71228      .   S
    N36    O92       4.00572  1_554   S
    C93    O94       1.71213      .   S
    N26    O94       4.00557  1_554   S
    C93    O95       1.05237      .   S
    Zr7    O95       2.19167      .   S
    C93    O96       0.83544      .   S
    Zr1    O96       1.93353      .   S
    C93    O97       1.12352      .   S
    Zr5    O97       2.31649      .   S
    C98    O99       1.05029      .   S
    Zr5    O99       2.16632      .   S
    C98    O100      1.14211      .   S
    Zr7    O100      2.29507      .   S
    C98    O101      1.70607  1_565   S
    N38    O101      3.99995      .   S
    C102   O103      1.05008      .   S
    Zr3    O103      2.16417  1_655   S
    C102   O104      1.70661      .   S
    N40    O104      3.99958      .   S
    C102   O105      1.14184      .   S
    Zr1    O105      2.29453      .   S
    C106   O107      1.71301      .   S
    N44    O107      4.00759      .   S
    C106   O108      1.12333      .   S
    Zr1    O108      2.31599      .   S
    C106   O109      0.83376      .   S
    Zr7    O109      1.93163      .   S
    C106   O110      1.05221      .   S
    Zr3    O110      2.19097      .   S
    C111   O112      1.12336      .   S
    Zr3    O112      2.31607  1_655   S
    C111   O113      0.83376      .   S
    Zr5    O113      1.93163      .   S
    C111   O114      1.71312      .   S
    N46    O114      4.00793      .   S
    C111   O115      1.05221      .   S
    Zr1    O115      2.19097      .   S
    C116   O117      1.70662      .   S
    N16    O117      3.99960      .   S
    C116   O118      1.14184      .   S
    Zr3    O118      2.29453      .   S
    C116   O119      1.05005      .   S
    Zr1    O119      2.16409      .   S
    C120   O121      1.05243      .   S
    Zr15   O121      2.19177  1_655   S
    C120   O122      0.83542      .   S
    Zr9    O122      1.93367      .   S
    C120   O123      1.12350      .   S
    Zr13   O123      2.31647      .   S
    C120   O124      1.71230      .   S
    N40    O124      4.00589  1_556   S
    C125   O126      1.12323      .   S
    Zr9    O126      2.31597  1_455   S
    C125   O127      0.83377      .   S
    Zr15   O127      1.93165      .   S
    C125   O128      1.71287      .   S
    N42    O128      4.00758      .   S
    C125   O129      1.05206      .   S
    Zr11   O129      2.19074      .   S
    C130   O131      1.14185      .   S
    Zr11   O131      2.29456      .   S
    C130   O132      1.70658      .   S
    N36    O132      3.99957      .   S
    C130   O133      1.05010      .   S
    Zr9    O133      2.16426  1_455   S
    C134   O135      1.14185      .   S
    Zr9    O135      2.29457      .   S
    C134   O136      1.05006      .   S
    Zr11   O136      2.16418      .   S
    C134   O137      1.70658      .   S
    N26    O137      3.99957      .   S
    C138   O139      1.05040      .   S
    Zr15   O139      2.16527      .   S
    C138   O140      1.14182      .   S
    Zr13   O140      2.29451      .   S
    C138   O141      1.70707      .   S
    N32    O141      4.00087      .   S
    C142   O143      1.14186      .   S
    Zr15   O143      2.29460  1_655   S
    C142   O144      1.70705      .   S
    N28    O144      4.00083      .   S
    C142   O145      1.05040      .   S
    Zr13   O145      2.16531      .   S
    C146   O147      1.71229      .   S
    N16    O147      4.00586  1_556   S
    C146   O148      0.83543      .   S
    Zr11   O148      1.93367      .   S
    C146   O149      1.12350      .   S
    Zr15   O149      2.31647      .   S
    C146   O150      1.05239      .   S
    Zr13   O150      2.19167      .   S
    C151   O152      0.83377      .   S
    Zr13   O152      1.93164      .   S
    C151   O153      1.12320      .   S
    Zr11   O153      2.31589      .   S
    C151   O154      1.71287      .   S
    N22    O154      4.00760      .   S
    C151   O155      1.05206      .   S
    Zr9    O155      2.19074      .   S
    C156   O157      1.05234      .   S
    Zr14   O157      2.19160  1_655   S
    C156   O158      1.71228      .   S
    N18    O158      4.00590  1_556   S
    C156   O159      0.83548      .   S
    Zr8    O159      1.93359      .   S
    C156   O160      1.12358      .   S
    Zr12   O160      2.31661      .   S
    C161   O162      1.70665      .   S
    N34    O162      3.99974      .   S
    C161   O163      1.05009      .   S
    Zr8    O163      2.16418  1_455   S
    C161   O164      1.14181      .   S
    Zr10   O164      2.29448      .   S
    C165   O166      1.71289      .   S
    N30    O166      4.00731      .   S
    C165   O167      1.12336      .   S
    Zr8    O167      2.31608  1_455   S
    C165   O168      0.83386      .   S
    Zr14   O168      1.93175      .   S
    C165   O169      1.05222      .   S
    Zr10   O169      2.19102      .   S
    C170   O171      1.14186      .   S
    Zr12   O171      2.29464      .   S
    C170   O172      1.70698  1_545   S
    N44    O172      4.00079      .   S
    C170   O173      1.05033      .   S
    Zr14   O173      2.16517      .   S
    C174   O175      1.70667      .   S
    N24    O175      3.99978      .   S
    C174   O176      1.05006      .   S
    Zr10   O176      2.16410      .   S
    C174   O177      1.14181      .   S
    Zr8    O177      2.29448      .   S
    C178   O179      1.70587  1_545   S
    N46    O179      4.00161      .   S
    C178   O180      1.05033      .   S
    Zr12   O180      2.16518      .   S
    C178   O181      1.14190      .   S
    Zr14   O181      2.29474  1_655   S
    C182   O183      1.05230      .   S
    Zr12   O183      2.19151      .   S
    C182   O184      1.71219      .   S
    N20    O184      4.00563  1_556   S
    C182   O185      0.83548      .   S
    Zr10   O185      1.93358      .   S
    C182   O186      1.12358      .   S
    Zr14   O186      2.31660      .   S
    C187   O188      1.71289      .   S
    N38    O188      4.00732      .   S
    C187   O189      1.05222      .   S
    Zr8    O189      2.19102      .   S
    C187   O190      1.12332      .   S
    Zr10   O190      2.31599      .   S
    C187   O191      0.83386      .   S
    Zr12   O191      1.93175      .   S
