# CIF file generated by openbabel 2.4.90, see http://openbabel.sf.net
data_I
_chemical_name_common ''
_cell_length_a 11.298
_cell_length_b 24.39
_cell_length_c 22.765
_cell_angle_alpha 99.196
_cell_angle_beta 89.99
_cell_angle_gamma 89.963
_space_group_name_H-M_alt 'P 1'
_space_group_name_Hall 'P 1'
loop_
    _symmetry_equiv_pos_as_xyz
    x,y,z
loop_
    _atom_site_label
    _atom_site_type_symbol
    _atom_site_fract_x
    _atom_site_fract_y
    _atom_site_fract_z
    _atom_site_occupancy
    Zr0     Zr   0.38286   0.31745   0.72328   1.000
    Zr1     Zr   0.38283   0.81746   0.72330   1.000
    Zr2     Zr   0.88285   0.31745   0.72328   1.000
    Zr3     Zr   0.88282   0.81746   0.72330   1.000
    Zr4     Zr   0.13291   0.43247   0.77676   1.000
    Zr5     Zr   0.13288   0.93246   0.77679   1.000
    Zr6     Zr   0.63290   0.43247   0.77676   1.000
    Zr7     Zr   0.63288   0.93247   0.77679   1.000
    Zr8     Zr   0.11714   0.18256   0.27669   1.000
    Zr9     Zr   0.11711   0.68257   0.27671   1.000
    Zr10    Zr   0.61713   0.18256   0.27669   1.000
    Zr11    Zr   0.61711   0.68257   0.27671   1.000
    Zr12    Zr   0.36710   0.06756   0.22319   1.000
    Zr13    Zr   0.36707   0.56755   0.22322   1.000
    Zr14    Zr   0.86710   0.06756   0.22319   1.000
    Zr15    Zr   0.86707   0.56755   0.22322   1.000
    Zr16    Zr   0.37680   0.00269   0.73343   1.000
    Zr17    Zr   0.37684   0.50270   0.73300   1.000
    Zr18    Zr   0.87680   0.00269   0.73343   1.000
    Zr19    Zr   0.87683   0.50270   0.73339   1.000
    Zr20    Zr   0.36403   0.14082   0.34616   1.000
    Zr21    Zr   0.36400   0.64085   0.34610   1.000
    Zr22    Zr   0.86402   0.14082   0.34616   1.000
    Zr23    Zr   0.86400   0.64085   0.34610   1.000
    Zr24    Zr   0.12687   0.24721   0.76655   1.000
    Zr25    Zr   0.12684   0.74722   0.76655   1.000
    Zr26    Zr   0.62686   0.24721   0.76655   1.000
    Zr27    Zr   0.62683   0.74722   0.76655   1.000
    Zr28    Zr   0.11394   0.10923   0.15359   1.000
    Zr29    Zr   0.11393   0.60922   0.15362   1.000
    Zr30    Zr   0.61394   0.10923   0.15359   1.000
    Zr31    Zr   0.61393   0.60922   0.15362   1.000
    Zr32    Zr   0.12315   0.49732   0.26658   1.000
    Zr33    Zr   0.12319   0.99733   0.26655   1.000
    Zr34    Zr   0.62315   0.49732   0.26658   1.000
    Zr35    Zr   0.62319   0.99733   0.26655   1.000
    Zr36    Zr   0.13597   0.35917   0.65380   1.000
    Zr37    Zr   0.13594   0.85920   0.65383   1.000
    Zr38    Zr   0.63597   0.35917   0.65380   1.000
    Zr39    Zr   0.63593   0.85920   0.65383   1.000
    Zr40    Zr   0.37312   0.25280   0.23344   1.000
    Zr41    Zr   0.37310   0.75280   0.23343   1.000
    Zr42    Zr   0.87312   0.25280   0.23344   1.000
    Zr43    Zr   0.87309   0.75280   0.23343   1.000
    Zr44    Zr   0.38603   0.39080   0.84636   1.000
    Zr45    Zr   0.38602   0.89080   0.84639   1.000
    Zr46    Zr   0.88602   0.39080   0.84636   1.000
    Zr47    Zr   0.88602   0.89080   0.84639   1.000
    Zr48    Zr   0.44950   0.13165   0.30873   1.000
    Zr49    Zr   0.44946   0.63167   0.30874   1.000
    Zr50    Zr   0.94950   0.13165   0.30873   1.000
    Zr51    Zr   0.94945   0.63167   0.30874   1.000
    Zr52    Zr   0.26884   0.49061   0.74028   1.000
    Zr53    Zr   0.26879   0.99061   0.74000   1.000
    Zr54    Zr   0.76884   0.49061   0.74028   1.000
    Zr55    Zr   0.76879   0.99061   0.74000   1.000
    Zr56    Zr   0.46594   0.47895   0.75191   1.000
    Zr57    Zr   0.46589   0.97895   0.75190   1.000
    Zr58    Zr   0.96593   0.47895   0.75191   1.000
    Zr59    Zr   0.96588   0.97895   0.75190   1.000
    Zr60    Zr   0.25592   0.13706   0.33122   1.000
    Zr61    Zr   0.25588   0.63710   0.33126   1.000
    Zr62    Zr   0.75592   0.13706   0.33122   1.000
    Zr63    Zr   0.75588   0.63710   0.33126   1.000
    Zr64    Zr   0.19932   0.11845   0.19106   1.000
    Zr65    Zr   0.19932   0.61845   0.19108   1.000
    Zr66    Zr   0.69932   0.11845   0.19106   1.000
    Zr67    Zr   0.69931   0.61845   0.19108   1.000
    Zr68    Zr   0.01884   0.25934   0.75972   1.000
    Zr69    Zr   0.01881   0.75935   0.75972   1.000
    Zr70    Zr   0.51884   0.25934   0.75972   1.000
    Zr71    Zr   0.51881   0.75935   0.75972   1.000
    Zr72    Zr   0.21590   0.27100   0.74807   1.000
    Zr73    Zr   0.21588   0.77101   0.74807   1.000
    Zr74    Zr   0.71589   0.27100   0.74807   1.000
    Zr75    Zr   0.71587   0.77101   0.74807   1.000
    Zr76    Zr   0.00577   0.11293   0.16844   1.000
    Zr77    Zr   0.00577   0.61292   0.16848   1.000
    Zr78    Zr   0.50577   0.11293   0.16844   1.000
    Zr79    Zr   0.50576   0.61292   0.16848   1.000
    Zr80    Zr   0.05051   0.36835   0.69124   1.000
    Zr81    Zr   0.05046   0.86836   0.69126   1.000
    Zr82    Zr   0.55051   0.36835   0.69124   1.000
    Zr83    Zr   0.55046   0.86836   0.69126   1.000
    Zr84    Zr   0.23121   0.00941   0.25969   1.000
    Zr85    Zr   0.23115   0.50941   0.25971   1.000
    Zr86    Zr   0.73120   0.00941   0.25969   1.000
    Zr87    Zr   0.73115   0.50941   0.25970   1.000
    Zr88    Zr   0.03411   0.02107   0.24801   1.000
    Zr89    Zr   0.03406   0.52107   0.24806   1.000
    Zr90    Zr   0.53411   0.02107   0.24801   1.000
    Zr91    Zr   0.53405   0.52107   0.24806   1.000
    Zr92    Zr   0.24409   0.36293   0.66872   1.000
    Zr93    Zr   0.24405   0.86296   0.66878   1.000
    Zr94    Zr   0.74408   0.36293   0.66872   1.000
    Zr95    Zr   0.74404   0.86296   0.66878   1.000
    Zr96    Zr   0.30064   0.38157   0.80890   1.000
    Zr97    Zr   0.30064   0.88157   0.80893   1.000
    Zr98    Zr   0.80063   0.38157   0.80890   1.000
    Zr99    Zr   0.80063   0.88157   0.80893   1.000
    Zr100   Zr   0.48114   0.24067   0.24027   1.000
    Zr101   Zr   0.48112   0.74067   0.24026   1.000
    Zr102   Zr   0.98114   0.24067   0.24027   1.000
    Zr103   Zr   0.98111   0.74067   0.24026   1.000
    Zr104   Zr   0.28408   0.22901   0.25191   1.000
    Zr105   Zr   0.28406   0.72902   0.25191   1.000
    Zr106   Zr   0.78408   0.22901   0.25191   1.000
    Zr107   Zr   0.78405   0.72902   0.25191   1.000
    Zr108   Zr   0.49419   0.38710   0.83140   1.000
    Zr109   Zr   0.49419   0.88710   0.83154   1.000
    Zr110   Zr   0.99418   0.38710   0.83149   1.000
    Zr111   Zr   0.99418   0.88710   0.83150   1.000
    O112    O    0.55985   0.11108   0.16102   1.000
    O113    O    0.65663   0.11384   0.17233   1.000
    O114    O    0.05986   0.11108   0.16102   1.000
    O115    O    0.15663   0.11384   0.17233   1.000
    O116    O    0.55984   0.61107   0.16105   1.000
    O117    O    0.65662   0.61383   0.17235   1.000
    O118    O    0.05985   0.61107   0.16105   1.000
    O119    O    0.15663   0.61383   0.17235   1.000
    O120    O    0.95061   0.04431   0.23560   1.000
    O121    O    0.79915   0.03848   0.24144   1.000
    O122    O    0.45061   0.04431   0.23560   1.000
    O123    O    0.29915   0.03848   0.24144   1.000
    O124    O    0.95056   0.54431   0.23564   1.000
    O125    O    0.79911   0.53848   0.24146   1.000
    O126    O    0.45056   0.54431   0.23564   1.000
    O127    O    0.29911   0.53848   0.24147   1.000
    O128    O    0.42711   0.74674   0.23685   1.000
    O129    O    0.32858   0.74091   0.24267   1.000
    O130    O    0.92710   0.74674   0.23685   1.000
    O131    O    0.82857   0.74091   0.24267   1.000
    O132    O    0.92713   0.24673   0.23686   1.000
    O133    O    0.82860   0.24090   0.24268   1.000
    O134    O    0.42713   0.24673   0.23686   1.000
    O135    O    0.32860   0.24090   0.24268   1.000
    O136    O    0.04911   0.71162   0.25849   1.000
    O137    O    0.54911   0.71162   0.25849   1.000
    O138    O    0.04914   0.21161   0.25848   1.000
    O139    O    0.54914   0.21161   0.25848   1.000
    O140    O    0.57865   0.00920   0.25728   1.000
    O141    O    0.07865   0.00920   0.25728   1.000
    O142    O    0.57860   0.50919   0.25732   1.000
    O143    O    0.07860   0.50919   0.25732   1.000
    O144    O    0.20061   0.20578   0.26430   1.000
    O145    O    0.70058   0.70579   0.26431   1.000
    O146    O    0.70060   0.20578   0.26430   1.000
    O147    O    0.20059   0.70579   0.26431   1.000
    O148    O    0.17720   0.00337   0.26312   1.000
    O149    O    0.67719   0.00337   0.26312   1.000
    O150    O    0.67715   0.50336   0.26314   1.000
    O151    O    0.17715   0.50336   0.26315   1.000
    O152    O    0.40677   0.13624   0.32745   1.000
    O153    O    0.90676   0.13624   0.32745   1.000
    O154    O    0.90672   0.63626   0.32742   1.000
    O155    O    0.40673   0.63626   0.32742   1.000
    O156    O    0.80997   0.13894   0.33869   1.000
    O157    O    0.30998   0.13894   0.33869   1.000
    O158    O    0.30994   0.63897   0.33868   1.000
    O159    O    0.80994   0.63897   0.33868   1.000
    O160    O    0.69003   0.36105   0.66126   1.000
    O161    O    0.59324   0.36376   0.67252   1.000
    O162    O    0.19003   0.36105   0.66126   1.000
    O163    O    0.09324   0.36376   0.67252   1.000
    O164    O    0.68999   0.86108   0.66131   1.000
    O165    O    0.59320   0.86378   0.67255   1.000
    O166    O    0.18999   0.86108   0.66131   1.000
    O167    O    0.09320   0.86378   0.67255   1.000
    O168    O    0.29938   0.29422   0.73568   1.000
    O169    O    0.45085   0.28840   0.74150   1.000
    O170    O    0.79937   0.29422   0.73568   1.000
    O171    O    0.95085   0.28840   0.74150   1.000
    O172    O    0.29935   0.79423   0.73569   1.000
    O173    O    0.45082   0.78841   0.74151   1.000
    O174    O    0.79935   0.79423   0.73569   1.000
    O175    O    0.95082   0.78841   0.74151   1.000
    O176    O    0.32284   0.49666   0.73664   1.000
    O177    O    0.42139   0.49082   0.74246   1.000
    O178    O    0.82283   0.49666   0.73684   1.000
    O179    O    0.92138   0.49082   0.74265   1.000
    O180    O    0.32280   0.99665   0.73672   1.000
    O181    O    0.42134   0.99082   0.74267   1.000
    O182    O    0.82279   0.99665   0.73672   1.000
    O183    O    0.92134   0.99082   0.74267   1.000
    O184    O    0.20084   0.96154   0.75840   1.000
    O185    O    0.70083   0.96154   0.75840   1.000
    O186    O    0.70087   0.46154   0.75852   1.000
    O187    O    0.20088   0.46154   0.75852   1.000
    O188    O    0.67135   0.75911   0.75731   1.000
    O189    O    0.67138   0.25911   0.75731   1.000
    O190    O    0.17136   0.75911   0.75731   1.000
    O191    O    0.17138   0.25911   0.75731   1.000
    O192    O    0.04938   0.95571   0.76435   1.000
    O193    O    0.54938   0.95571   0.76435   1.000
    O194    O    0.04942   0.45571   0.76433   1.000
    O195    O    0.54942   0.45571   0.76433   1.000
    O196    O    0.07285   0.25328   0.76314   1.000
    O197    O    0.07283   0.75328   0.76314   1.000
    O198    O    0.57285   0.25328   0.76314   1.000
    O199    O    0.57282   0.75328   0.76314   1.000
    O200    O    0.84333   0.38618   0.82763   1.000
    O201    O    0.34333   0.38619   0.82763   1.000
    O202    O    0.34333   0.88618   0.82766   1.000
    O203    O    0.84333   0.88618   0.82766   1.000
    O204    O    0.44011   0.38895   0.83888   1.000
    O205    O    0.94010   0.38895   0.83893   1.000
    O206    O    0.94010   0.88895   0.83895   1.000
    O207    O    0.44011   0.88895   0.83897   1.000
    O208    O    0.53332   0.15711   0.29271   1.000
    O209    O    0.40830   0.09961   0.26596   1.000
    O210    O    0.53328   0.65712   0.29273   1.000
    O211    O    0.40826   0.59961   0.26598   1.000
    O212    O    0.03332   0.15711   0.29271   1.000
    O213    O    0.90830   0.09961   0.26596   1.000
    O214    O    0.03328   0.65712   0.29273   1.000
    O215    O    0.90826   0.59961   0.26598   1.000
    O216    O    0.18653   0.15981   0.30396   1.000
    O217    O    0.18650   0.65983   0.30399   1.000
    O218    O    0.68652   0.15981   0.30396   1.000
    O219    O    0.68649   0.65983   0.30399   1.000
    O220    O    0.15823   0.15050   0.23388   1.000
    O221    O    0.28321   0.09300   0.20713   1.000
    O222    O    0.15821   0.65051   0.23390   1.000
    O223    O    0.28319   0.59300   0.20715   1.000
    O224    O    0.65822   0.15050   0.23388   1.000
    O225    O    0.78321   0.09300   0.20713   1.000
    O226    O    0.65821   0.65051   0.23390   1.000
    O227    O    0.78319   0.59300   0.20715   1.000
    O228    O    0.93643   0.09024   0.19582   1.000
    O229    O    0.93642   0.59024   0.19585   1.000
    O230    O    0.43643   0.09024   0.19582   1.000
    O231    O    0.43642   0.59024   0.19585   1.000
    O232    O    0.96668   0.34290   0.70726   1.000
    O233    O    0.09171   0.40041   0.73400   1.000
    O234    O    0.96664   0.84291   0.70728   1.000
    O235    O    0.09167   0.90041   0.73403   1.000
    O236    O    0.46668   0.34290   0.70726   1.000
    O237    O    0.59171   0.40041   0.73400   1.000
    O238    O    0.46664   0.84291   0.70728   1.000
    O239    O    0.59167   0.90041   0.73403   1.000
    O240    O    0.31347   0.34019   0.69600   1.000
    O241    O    0.31344   0.84021   0.69604   1.000
    O242    O    0.81347   0.34019   0.69600   1.000
    O243    O    0.81343   0.84021   0.69604   1.000
    O244    O    0.34175   0.34951   0.76609   1.000
    O245    O    0.21677   0.40702   0.79283   1.000
    O246    O    0.34173   0.84952   0.76612   1.000
    O247    O    0.21676   0.90702   0.79286   1.000
    O248    O    0.84174   0.34951   0.76609   1.000
    O249    O    0.71677   0.40702   0.79283   1.000
    O250    O    0.84173   0.84952   0.76612   1.000
    O251    O    0.71676   0.90702   0.79286   1.000
    O252    O    0.56355   0.40979   0.80408   1.000
    O253    O    0.56353   0.90978   0.80417   1.000
    O254    O    0.06355   0.40979   0.80413   1.000
    O255    O    0.06353   0.90978   0.80415   1.000
    N256    N    0.68309   0.60723   0.92186   1.000
    O257    O    0.65605   0.60492   0.02147   1.000
    O258    O    0.66107   0.66517   0.85242   1.000
    O259    O    0.66346   0.53786   0.87200   1.000
    N260    N    0.18313   0.10722   0.92183   1.000
    O261    O    0.15608   0.10492   0.02144   1.000
    O262    O    0.16348   0.03785   0.87199   1.000
    O263    O    0.16111   0.16516   0.85240   1.000
    N264    N    0.68312   0.10722   0.92184   1.000
    O265    O    0.66347   0.03785   0.87200   1.000
    O266    O    0.65608   0.10492   0.02145   1.000
    O267    O    0.66111   0.16516   0.85241   1.000
    N268    N    0.43303   0.64267   0.57798   1.000
    O269    O    0.41103   0.58473   0.64736   1.000
    O270    O    0.40603   0.64506   0.47834   1.000
    O271    O    0.41345   0.71205   0.62792   1.000
    N272    N    0.31688   0.39279   0.07812   1.000
    O273    O    0.33889   0.33485   0.14756   1.000
    O274    O    0.34391   0.39510   0.97851   1.000
    O275    O    0.33651   0.46216   0.12798   1.000
    N276    N    0.31684   0.89281   0.07814   1.000
    O277    O    0.33886   0.83486   0.14757   1.000
    O278    O    0.33650   0.96217   0.12798   1.000
    O279    O    0.34389   0.89510   0.97853   1.000
    N280    N    0.06694   0.35736   0.42200   1.000
    O281    O    0.08895   0.41530   0.35252   1.000
    O282    O    0.09394   0.35497   0.52163   1.000
    O283    O    0.08651   0.28798   0.37207   1.000
    N284    N    0.93302   0.14263   0.57797   1.000
    O285    O    0.91346   0.21202   0.62791   1.000
    O286    O    0.90603   0.14502   0.47834   1.000
    O287    O    0.91101   0.08469   0.64747   1.000
    N288    N    0.56694   0.35736   0.42200   1.000
    O289    O    0.58651   0.28798   0.37207   1.000
    O290    O    0.58894   0.41530   0.35252   1.000
    O291    O    0.59394   0.35497   0.52163   1.000
    N292    N    0.81687   0.39280   0.07812   1.000
    O293    O    0.84391   0.39510   0.97851   1.000
    O294    O    0.83888   0.33485   0.14757   1.000
    O295    O    0.83650   0.46216   0.12798   1.000
    N296    N    0.81684   0.89281   0.07814   1.000
    O297    O    0.83650   0.96217   0.12798   1.000
    O298    O    0.84388   0.89510   0.97853   1.000
    O299    O    0.83885   0.83486   0.14757   1.000
    N300    N    0.43302   0.14263   0.57797   1.000
    O301    O    0.41346   0.21202   0.62791   1.000
    O302    O    0.40603   0.14502   0.47834   1.000
    O303    O    0.41101   0.08469   0.64747   1.000
    N304    N    0.18310   0.60723   0.92186   1.000
    O305    O    0.16347   0.53786   0.87200   1.000
    O306    O    0.15606   0.60493   0.02147   1.000
    O307    O    0.16108   0.66517   0.85242   1.000
    N308    N    0.93303   0.64267   0.57798   1.000
    O309    O    0.91345   0.71205   0.62792   1.000
    O310    O    0.91103   0.58473   0.64745   1.000
    O311    O    0.90603   0.64506   0.47834   1.000
    N312    N    0.56696   0.85741   0.42200   1.000
    O313    O    0.58897   0.91534   0.35251   1.000
    O314    O    0.58650   0.78801   0.37208   1.000
    O315    O    0.59394   0.85502   0.52164   1.000
    N316    N    0.06696   0.85741   0.42199   1.000
    O317    O    0.08897   0.91534   0.35238   1.000
    O318    O    0.08650   0.78801   0.37207   1.000
    O319    O    0.09394   0.85501   0.52163   1.000
loop_
    _geom_bond_atom_site_label_1
    _geom_bond_atom_site_label_2
    _geom_bond_distance
    _geom_bond_site_symmetry_2
    _ccdc_geom_bond_type
    Zr30   O112      0.63364      .   S
    Zr78   O112      0.63364      .   S
    Zr30   O113      0.64185      .   S
    Zr66   O113      0.64185      .   S
    Zr28   O114      0.63364      .   S
    Zr76   O114      0.63364      .   S
    Zr28   O115      0.64185      .   S
    Zr64   O115      0.64185      .   S
    Zr31   O116      0.63363      .   S
    Zr79   O116      0.63363      .   S
    Zr31   O117      0.64182      .   S
    Zr67   O117      0.64182      .   S
    Zr29   O118      0.63363      .   S
    Zr77   O118      0.63363      .   S
    Zr29   O119      0.64181      .   S
    Zr65   O119      0.64181      .   S
    Zr14   O120      1.15842      .   S
    Zr88   O120      1.15842  1_455   S
    Zr14   O121      1.16596      .   S
    Zr86   O121      1.16596      .   S
    Zr12   O122      1.15836      .   S
    Zr90   O122      1.15836      .   S
    Zr12   O123      1.16597      .   S
    Zr84   O123      1.16597      .   S
    Zr15   O124      1.15832      .   S
    Zr89   O124      1.15832  1_455   S
    Zr15   O125      1.16594      .   S
    Zr87   O125      1.16594      .   S
    Zr13   O126      1.15827      .   S
    Zr91   O126      1.15827      .   S
    Zr13   O127      1.16599      .   S
    Zr85   O127      1.16599      .   S
    Zr41   O128      0.63550      .   S
    Zr101  O128      0.63550      .   S
    Zr41   O129      0.63327      .   S
    Zr105  O129      0.63327      .   S
    Zr43   O130      0.63550      .   S
    Zr103  O130      0.63550      .   S
    Zr43   O131      0.63327      .   S
    Zr107  O131      0.63327      .   S
    Zr42   O132      0.63551      .   S
    Zr102  O132      0.63551      .   S
    Zr42   O133      0.63326      .   S
    Zr106  O133      0.63326      .   S
    Zr40   O134      0.63550      .   S
    Zr100  O134      0.63550      .   S
    Zr40   O135      0.63326      .   S
    Zr104  O135      0.63326      .   S
    Zr103  O136      1.16522  1_655   S
    Zr9    O136      1.16522      .   S
    Zr101  O137      1.16517      .   S
    Zr11   O137      1.16517      .   S
    Zr102  O138      1.16512  1_655   S
    Zr8    O138      1.16512      .   S
    Zr100  O139      1.16508      .   S
    Zr10   O139      1.16508      .   S
    Zr90   O140      0.63320      .   S
    Zr35   O140      0.63320  1_565   S
    Zr88   O141      0.63321      .   S
    Zr33   O141      0.63321  1_565   S
    Zr91   O142      0.63327      .   S
    Zr34   O142      0.63327      .   S
    Zr89   O143      0.63328      .   S
    Zr32   O143      0.63328      .   S
    Zr104  O144      1.15822      .   S
    Zr8    O144      1.15822      .   S
    Zr107  O145      1.15826      .   S
    Zr11   O145      1.15826      .   S
    Zr106  O146      1.15822      .   S
    Zr10   O146      1.15822      .   S
    Zr105  O147      1.15827      .   S
    Zr9    O147      1.15827      .   S
    Zr84   O148      0.63551      .   S
    Zr33   O148      0.63551  1_565   S
    Zr86   O149      0.63552      .   S
    Zr35   O149      0.63552  1_565   S
    Zr87   O150      0.63551      .   S
    Zr34   O150      0.63551      .   S
    Zr85   O151      0.63550      .   S
    Zr32   O151      0.63550      .   S
    Zr48   O152      0.64171      .   S
    Zr20   O152      0.64171      .   S
    Zr50   O153      0.64171      .   S
    Zr22   O153      0.64171      .   S
    Zr51   O154      0.64114      .   S
    Zr23   O154      0.64114      .   S
    Zr49   O155      0.64114      .   S
    Zr21   O155      0.64114      .   S
    Zr62   O156      0.63369      .   S
    Zr22   O156      0.63369      .   S
    Zr60   O157      0.63369      .   S
    Zr20   O157      0.63369      .   S
    Zr61   O158      0.63347      .   S
    Zr21   O158      0.63347      .   S
    Zr63   O159      0.63347      .   S
    Zr23   O159      0.63347      .   S
    Zr38   O160      0.63369      .   S
    Zr94   O160      0.63369      .   S
    Zr38   O161      0.64171      .   S
    Zr82   O161      0.64171      .   S
    Zr36   O162      0.63369      .   S
    Zr92   O162      0.63369      .   S
    Zr36   O163      0.64171      .   S
    Zr80   O163      0.64171      .   S
    Zr39   O164      0.63372      .   S
    Zr95   O164      0.63372      .   S
    Zr39   O165      0.64172      .   S
    Zr83   O165      0.64172      .   S
    Zr37   O166      0.63372      .   S
    Zr93   O166      0.63372      .   S
    Zr37   O167      0.64172      .   S
    Zr81   O167      0.64172      .   S
    Zr0    O168      1.15829      .   S
    Zr72   O168      1.15829      .   S
    Zr0    O169      1.16514      .   S
    Zr70   O169      1.16514      .   S
    Zr2    O170      1.15829      .   S
    Zr74   O170      1.15829      .   S
    Zr2    O171      1.16519      .   S
    Zr68   O171      1.16519  1_455   S
    Zr1    O172      1.15824      .   S
    Zr73   O172      1.15824      .   S
    Zr1    O173      1.16509      .   S
    Zr71   O173      1.16509      .   S
    Zr3    O174      1.15824      .   S
    Zr75   O174      1.15824      .   S
    Zr3    O175      1.16514      .   S
    Zr69   O175      1.16514  1_455   S
    Zr17   O176      0.63625      .   S
    Zr52   O176      0.63625      .   S
    Zr17   O177      0.63514      .   S
    Zr56   O177      0.63514      .   S
    Zr19   O178      0.63552      .   S
    Zr54   O178      0.63552      .   S
    Zr19   O179      0.63333      .   S
    Zr58   O179      0.63333      .   S
    Zr16   O180      0.63499  1_545   S
    Zr53   O180      0.63499      .   S
    Zr16   O181      0.63291  1_545   S
    Zr57   O181      0.63291      .   S
    Zr18   O182      0.63498  1_545   S
    Zr55   O182      0.63498      .   S
    Zr18   O183      0.63291  1_545   S
    Zr59   O183      0.63291      .   S
    Zr53   O184      1.16750      .   S
    Zr5    O184      1.16750      .   S
    Zr55   O185      1.16751      .   S
    Zr7    O185      1.16751      .   S
    Zr54   O186      1.16598      .   S
    Zr6    O186      1.16598      .   S
    Zr52   O187      1.16598      .   S
    Zr4    O187      1.16598      .   S
    Zr75   O188      0.63329      .   S
    Zr27   O188      0.63329      .   S
    Zr74   O189      0.63327      .   S
    Zr26   O189      0.63327      .   S
    Zr73   O190      0.63329      .   S
    Zr25   O190      0.63329      .   S
    Zr72   O191      0.63327      .   S
    Zr24   O191      0.63327      .   S
    Zr59   O192      1.15858  1_655   S
    Zr5    O192      1.15858      .   S
    Zr57   O193      1.15853      .   S
    Zr7    O193      1.15853      .   S
    Zr58   O194      1.15827  1_655   S
    Zr4    O194      1.15827      .   S
    Zr56   O195      1.15821      .   S
    Zr6    O195      1.15821      .   S
    Zr68   O196      0.63551      .   S
    Zr24   O196      0.63551      .   S
    Zr69   O197      0.63551      .   S
    Zr25   O197      0.63551      .   S
    Zr70   O198      0.63551      .   S
    Zr26   O198      0.63551      .   S
    Zr71   O199      0.63551      .   S
    Zr27   O199      0.63551      .   S
    Zr98   O200      0.64185      .   S
    Zr46   O200      0.64185      .   S
    Zr96   O201      0.64185      .   S
    Zr44   O201      0.64185      .   S
    Zr97   O202      0.64180      .   S
    Zr45   O202      0.64180      .   S
    Zr99   O203      0.64181      .   S
    Zr47   O203      0.64181      .   S
    Zr108  O204      0.63389      .   S
    Zr44   O204      0.63389      .   S
    Zr110  O205      0.63362      .   S
    Zr46   O205      0.63362      .   S
    Zr111  O206      0.63373      .   S
    Zr47   O206      0.63373      .   S
    Zr109  O207      0.63361      .   S
    Zr45   O207      0.63361      .   S
    Zr48   O208      1.21986      .   S
    Zr10   O208      1.21986      .   S
    Zr48   O209      1.23816      .   S
    Zr12   O209      1.23816      .   S
    Zr49   O210      1.21990      .   S
    Zr11   O210      1.21990      .   S
    Zr49   O211      1.23811      .   S
    Zr13   O211      1.23811      .   S
    Zr50   O212      1.21991  1_655   S
    Zr8    O212      1.21991      .   S
    Zr50   O213      1.23816      .   S
    Zr14   O213      1.23816      .   S
    Zr51   O214      1.21995  1_655   S
    Zr9    O214      1.21995      .   S
    Zr51   O215      1.23812      .   S
    Zr15   O215      1.23812      .   S
    Zr60   O216      1.19055      .   S
    Zr8    O216      1.19055      .   S
    Zr61   O217      1.19051      .   S
    Zr9    O217      1.19051      .   S
    Zr62   O218      1.19055      .   S
    Zr10   O218      1.19055      .   S
    Zr63   O219      1.19051      .   S
    Zr11   O219      1.19051      .   S
    Zr64   O220      1.23800      .   S
    Zr8    O220      1.23800      .   S
    Zr64   O221      1.22029      .   S
    Zr12   O221      1.22029      .   S
    Zr65   O222      1.23814      .   S
    Zr9    O222      1.23814      .   S
    Zr65   O223      1.22025      .   S
    Zr13   O223      1.22025      .   S
    Zr66   O224      1.23799      .   S
    Zr10   O224      1.23799      .   S
    Zr66   O225      1.22028      .   S
    Zr14   O225      1.22028      .   S
    Zr67   O226      1.23814      .   S
    Zr11   O226      1.23814      .   S
    Zr67   O227      1.22025      .   S
    Zr15   O227      1.22025      .   S
    Zr76   O228      1.19112  1_455   S
    Zr14   O228      1.19112      .   S
    Zr77   O229      1.19116  1_455   S
    Zr15   O229      1.19116      .   S
    Zr78   O230      1.19108      .   S
    Zr12   O230      1.19108      .   S
    Zr79   O231      1.19111      .   S
    Zr13   O231      1.19111      .   S
    Zr80   O232      1.21997  1_455   S
    Zr2    O232      1.21997      .   S
    Zr80   O233      1.23817      .   S
    Zr4    O233      1.23817      .   S
    Zr81   O234      1.21988  1_455   S
    Zr3    O234      1.21988      .   S
    Zr81   O235      1.23817      .   S
    Zr5    O235      1.23817      .   S
    Zr82   O236      1.21992      .   S
    Zr0    O236      1.21992      .   S
    Zr82   O237      1.23816      .   S
    Zr6    O237      1.23816      .   S
    Zr83   O238      1.21984      .   S
    Zr1    O238      1.21984      .   S
    Zr83   O239      1.23817      .   S
    Zr7    O239      1.23817      .   S
    Zr92   O240      1.19060      .   S
    Zr0    O240      1.19060      .   S
    Zr93   O241      1.19051      .   S
    Zr1    O241      1.19051      .   S
    Zr94   O242      1.19060      .   S
    Zr2    O242      1.19060      .   S
    Zr95   O243      1.19051      .   S
    Zr3    O243      1.19051      .   S
    Zr96   O244      1.23808      .   S
    Zr0    O244      1.23808      .   S
    Zr96   O245      1.22014      .   S
    Zr4    O245      1.22014      .   S
    Zr97   O246      1.23799      .   S
    Zr1    O246      1.23799      .   S
    Zr97   O247      1.22025      .   S
    Zr5    O247      1.22025      .   S
    Zr98   O248      1.23807      .   S
    Zr2    O248      1.23807      .   S
    Zr98   O249      1.22015      .   S
    Zr6    O249      1.22015      .   S
    Zr99   O250      1.23799      .   S
    Zr3    O250      1.23799      .   S
    Zr99   O251      1.22025      .   S
    Zr7    O251      1.22025      .   S
    Zr108  O252      1.19052      .   S
    Zr6    O252      1.19052      .   S
    Zr109  O253      1.19114      .   S
    Zr7    O253      1.19114      .   S
    Zr110  O254      1.19117  1_655   S
    Zr4    O254      1.19117      .   S
    Zr111  O255      1.19091  1_655   S
    Zr5    O255      1.19091      .   S
    N256   O257      2.29758  1_556   S
    Zr31   O257      3.03102      .   S
    N256   O258      2.29607      .   S
    Zr27   O258      3.03726      .   S
    N256   O259      1.89379      .   S
    Zr6    O259      3.10606      .   S
    N260   O261      2.29763  1_556   S
    Zr28   O261      3.03098      .   S
    N260   O262      1.89357      .   S
    Zr5    O262      3.10557  1_565   S
    N260   O263      2.29584      .   S
    Zr24   O263      3.03703      .   S
    N264   O265      1.89365      .   S
    Zr7    O265      3.10566  1_565   S
    N264   O266      2.29745  1_556   S
    Zr30   O266      3.03080      .   S
    N264   O267      2.29599      .   S
    Zr26   O267      3.03716      .   S
    N268   O269      2.29511      .   S
    Zr17   O269      3.03313      .   S
    N268   O270      2.29875      .   S
    Zr21   O270      3.03319      .   S
    N268   O271      1.89451      .   S
    Zr1    O271      3.10783      .   S
    N272   O273      2.29621      .   S
    Zr40   O273      3.03740      .   S
    N272   O274      2.29755  1_554   S
    Zr44   O274      3.03097      .   S
    N272   O275      1.89380      .   S
    Zr13   O275      3.10606      .   S
    N276   O277      2.29608      .   S
    Zr41   O277      3.03721      .   S
    N276   O278      1.89366      .   S
    Zr12   O278      3.10565  1_545   S
    N276   O279      2.29744  1_554   S
    Zr45   O279      3.03077      .   S
    N280   O281      2.29684      .   S
    Zr32   O281      3.03816      .   S
    N280   O282      2.29833      .   S
    Zr36   O282      3.03176      .   S
    N280   O283      1.89457      .   S
    Zr8    O283      3.10793      .   S
    N284   O285      1.89466      .   S
    Zr2    O285      3.10809      .   S
    N284   O286      2.29843      .   S
    Zr22   O286      3.03196      .   S
    N284   O287      2.29699      .   S
    Zr18   O287      3.03830      .   S
    N288   O289      1.89457      .   S
    Zr10   O289      3.10795      .   S
    N288   O290      2.29685      .   S
    Zr34   O290      3.03817      .   S
    N288   O291      2.29831      .   S
    Zr38   O291      3.03175      .   S
    N292   O293      2.29759  1_554   S
    Zr46   O293      3.03101      .   S
    N292   O294      2.29618      .   S
    Zr42   O294      3.03736      .   S
    N292   O295      1.89379      .   S
    Zr15   O295      3.10603      .   S
    N296   O297      1.89366      .   S
    Zr14   O297      3.10565  1_545   S
    N296   O298      2.29744  1_554   S
    Zr47   O298      3.03077      .   S
    N296   O299      2.29608      .   S
    Zr43   O299      3.03720      .   S
    N300   O301      1.89466      .   S
    Zr0    O301      3.10808      .   S
    N300   O302      2.29844      .   S
    Zr20   O302      3.03197      .   S
    N300   O303      2.29698      .   S
    Zr16   O303      3.03829      .   S
    N304   O305      1.89379      .   S
    Zr4    O305      3.10605      .   S
    N304   O306      2.29759  1_556   S
    Zr29   O306      3.03103      .   S
    N304   O307      2.29606      .   S
    Zr25   O307      3.03724      .   S
    N308   O309      1.89453      .   S
    Zr3    O309      3.10785      .   S
    N308   O310      2.29687      .   S
    Zr19   O310      3.03813      .   S
    N308   O311      2.29874      .   S
    Zr23   O311      3.03318      .   S
    N312   O313      2.29687      .   S
    Zr35   O313      3.03813      .   S
    N312   O314      1.89467      .   S
    Zr11   O314      3.10814      .   S
    N312   O315      2.29859      .   S
    Zr39   O315      3.03213      .   S
    N316   O317      2.29890      .   S
    Zr33   O317      3.03587      .   S
    N316   O318      1.89458      .   S
    Zr9    O318      3.10801      .   S
    N316   O319      2.29882      .   S
    Zr37   O319      3.03235      .   S
