# CIF file generated by openbabel 2.4.90, see http://openbabel.sf.net
data_I
_chemical_name_common ''
_cell_length_a 11.298
_cell_length_b 24.39
_cell_length_c 22.765
_cell_angle_alpha 99.196
_cell_angle_beta 89.99
_cell_angle_gamma 89.963
_space_group_name_H-M_alt 'P 1'
_space_group_name_Hall 'P 1'
loop_
    _symmetry_equiv_pos_as_xyz
    x,y,z
loop_
    _atom_site_label
    _atom_site_type_symbol
    _atom_site_fract_x
    _atom_site_fract_y
    _atom_site_fract_z
    _atom_site_occupancy
    C0      C    0.38286   0.31745   0.72328   1.000
    C1      C    0.38283   0.81746   0.72330   1.000
    C2      C    0.88285   0.31745   0.72328   1.000
    C3      C    0.88282   0.81746   0.72330   1.000
    C4      C    0.13291   0.43247   0.77676   1.000
    C5      C    0.13288   0.93246   0.77679   1.000
    C6      C    0.63290   0.43247   0.77676   1.000
    C7      C    0.63288   0.93247   0.77679   1.000
    C8      C    0.11714   0.18256   0.27669   1.000
    C9      C    0.11711   0.68257   0.27671   1.000
    C10     C    0.61713   0.18256   0.27669   1.000
    C11     C    0.61711   0.68257   0.27671   1.000
    C12     C    0.36710   0.06756   0.22319   1.000
    C13     C    0.36707   0.56755   0.22322   1.000
    C14     C    0.86710   0.06756   0.22319   1.000
    C15     C    0.86707   0.56755   0.22322   1.000
    C16     C    0.11772   0.10195   0.61978   1.000
    C17     C    0.11774   0.60200   0.61977   1.000
    C18     C    0.61771   0.10195   0.61978   1.000
    C19     C    0.61774   0.60200   0.61977   1.000
    C20     C    0.07036   0.11950   0.40120   1.000
    C21     C    0.07036   0.61954   0.40120   1.000
    C22     C    0.57034   0.11948   0.40120   1.000
    C23     C    0.57035   0.61953   0.40122   1.000
    C24     C    0.26986   0.21357   0.54315   1.000
    C25     C    0.26987   0.71362   0.54316   1.000
    C26     C    0.76984   0.21355   0.54315   1.000
    C27     C    0.76986   0.71362   0.54316   1.000
    C28     C    0.27680   0.17265   0.67399   1.000
    C29     C    0.27682   0.67268   0.67399   1.000
    C30     C    0.77680   0.17265   0.67399   1.000
    C31     C    0.77681   0.67268   0.67399   1.000
    C32     C    0.23380   0.09031   0.72366   1.000
    C33     C    0.23383   0.59033   0.72364   1.000
    C34     C    0.73380   0.09031   0.72366   1.000
    C35     C    0.73382   0.59033   0.72360   1.000
    C36     C    0.07630   0.02224   0.67276   1.000
    C37     C    0.07633   0.52227   0.67273   1.000
    C38     C    0.57630   0.02224   0.67276   1.000
    C39     C    0.57632   0.52227   0.67273   1.000
    C40     C    0.11681   0.14173   0.50949   1.000
    C41     C    0.11682   0.64178   0.50951   1.000
    C42     C    0.61679   0.14172   0.50950   1.000
    C43     C    0.61680   0.64177   0.50951   1.000
    C44     C    0.22449   0.19080   0.43430   1.000
    C45     C    0.22449   0.69085   0.43430   1.000
    C46     C    0.72447   0.19079   0.43430   1.000
    C47     C    0.72448   0.69085   0.43432   1.000
    C48     C    0.36788   0.14774   0.88002   1.000
    C49     C    0.36783   0.64776   0.88004   1.000
    C50     C    0.86787   0.14774   0.88000   1.000
    C51     C    0.86783   0.64776   0.88004   1.000
    C52     C    0.32036   0.13049   0.09853   1.000
    C53     C    0.32035   0.63047   0.09855   1.000
    C54     C    0.82036   0.13048   0.09853   1.000
    C55     C    0.82034   0.63047   0.09855   1.000
    C56     C    0.02003   0.03634   0.95672   1.000
    C57     C    0.01997   0.53637   0.95674   1.000
    C58     C    0.52001   0.03635   0.95672   1.000
    C59     C    0.51998   0.53636   0.95674   1.000
    C60     C    0.02706   0.07720   0.82580   1.000
    C61     C    0.02703   0.57721   0.82582   1.000
    C62     C    0.52706   0.07720   0.82580   1.000
    C63     C    0.52702   0.57721   0.82580   1.000
    C64     C    0.48398   0.15959   0.77621   1.000
    C65     C    0.48395   0.65960   0.77621   1.000
    C66     C    0.98397   0.15959   0.77621   1.000
    C67     C    0.98395   0.65960   0.77621   1.000
    C68     C    0.32635   0.22752   0.82713   1.000
    C69     C    0.32632   0.72754   0.82714   1.000
    C70     C    0.82634   0.22753   0.82713   1.000
    C71     C    0.82631   0.72754   0.82714   1.000
    C72     C    0.36684   0.10812   0.99023   1.000
    C73     C    0.36682   0.60811   0.99025   1.000
    C74     C    0.86684   0.10812   0.99023   1.000
    C75     C    0.86681   0.60812   0.99025   1.000
    C76     C    0.47462   0.05926   0.06558   1.000
    C77     C    0.47460   0.55925   0.06560   1.000
    C78     C    0.97462   0.05925   0.06558   1.000
    C79     C    0.97459   0.55926   0.06560   1.000
    C80     C    0.38224   0.39803   0.38021   1.000
    C81     C    0.38227   0.89808   0.38021   1.000
    C82     C    0.88223   0.39803   0.38021   1.000
    C83     C    0.88227   0.89809   0.38021   1.000
    C84     C    0.42963   0.38050   0.59877   1.000
    C85     C    0.42962   0.88054   0.59879   1.000
    C86     C    0.92961   0.38049   0.59878   1.000
    C87     C    0.92961   0.88054   0.59879   1.000
    C88     C    0.23011   0.28643   0.45682   1.000
    C89     C    0.23013   0.78649   0.45684   1.000
    C90     C    0.73009   0.28641   0.45682   1.000
    C91     C    0.73011   0.78648   0.45684   1.000
    C92     C    0.22316   0.32734   0.32599   1.000
    C93     C    0.22318   0.82738   0.32600   1.000
    C94     C    0.72316   0.32734   0.32600   1.000
    C95     C    0.72318   0.82738   0.32600   1.000
    C96     C    0.26615   0.40969   0.27634   1.000
    C97     C    0.26618   0.90972   0.27632   1.000
    C98     C    0.76615   0.40969   0.27634   1.000
    C99     C    0.76618   0.90972   0.27630   1.000
    C100    C    0.42366   0.47776   0.32724   1.000
    C101    C    0.42369   0.97780   0.32722   1.000
    C102    C    0.92365   0.47776   0.32725   1.000
    C103    C    0.92369   0.97780   0.32722   1.000
    C104    C    0.38317   0.35827   0.49048   1.000
    C105    C    0.38318   0.85832   0.49050   1.000
    C106    C    0.88315   0.35826   0.49048   1.000
    C107    C    0.88316   0.85831   0.49050   1.000
    C108    C    0.27549   0.30920   0.56567   1.000
    C109    C    0.27550   0.80925   0.56569   1.000
    C110    C    0.77548   0.30918   0.56567   1.000
    C111    C    0.77549   0.80924   0.56569   1.000
    C112    C    0.13214   0.35226   0.11994   1.000
    C113    C    0.13209   0.85228   0.11997   1.000
    C114    C    0.63213   0.35226   0.11994   1.000
    C115    C    0.63209   0.85228   0.11990   1.000
    C116    C    0.17962   0.36956   0.90143   1.000
    C117    C    0.17962   0.86954   0.90140   1.000
    C118    C    0.67963   0.36955   0.90143   1.000
    C119    C    0.67960   0.86955   0.90145   1.000
    C120    C    0.48000   0.46366   0.04324   1.000
    C121    C    0.47995   0.96368   0.04326   1.000
    C122    C    0.97999   0.46367   0.04324   1.000
    C123    C    0.97995   0.96368   0.04326   1.000
    C124    C    0.47295   0.42281   0.17416   1.000
    C125    C    0.47291   0.92282   0.17417   1.000
    C126    C    0.97294   0.42281   0.17416   1.000
    C127    C    0.97290   0.92282   0.17417   1.000
    C128    C    0.01602   0.34042   0.22377   1.000
    C129    C    0.01599   0.84043   0.22378   1.000
    C130    C    0.51601   0.34042   0.22377   1.000
    C131    C    0.51598   0.84043   0.22370   1.000
    C132    C    0.17365   0.27248   0.17280   1.000
    C133    C    0.17361   0.77250   0.17286   1.000
    C134    C    0.67364   0.27248   0.17285   1.000
    C135    C    0.67361   0.77250   0.17286   1.000
    C136    C    0.13315   0.39192   0.00973   1.000
    C137    C    0.13313   0.89190   0.00976   1.000
    C138    C    0.63316   0.39191   0.00973   1.000
    C139    C    0.63312   0.89191   0.00976   1.000
    C140    C    0.02538   0.44078   0.93438   1.000
    C141    C    0.02535   0.94077   0.93440   1.000
    C142    C    0.52538   0.44076   0.93438   1.000
    C143    C    0.52534   0.94078   0.93440   1.000
    C144    C    0.37680   0.00269   0.73343   1.000
    C145    C    0.37684   0.50270   0.73300   1.000
    C146    C    0.87680   0.00269   0.73343   1.000
    C147    C    0.87683   0.50270   0.73339   1.000
    C148    C    0.36403   0.14082   0.34616   1.000
    C149    C    0.36400   0.64085   0.34610   1.000
    C150    C    0.86402   0.14082   0.34616   1.000
    C151    C    0.86400   0.64085   0.34610   1.000
    C152    C    0.44648   0.17960   0.53215   1.000
    C153    C    0.44650   0.67966   0.53216   1.000
    C154    C    0.94648   0.17960   0.53215   1.000
    C155    C    0.94649   0.67966   0.53216   1.000
    C156    C    0.44886   0.14129   0.64335   1.000
    C157    C    0.44888   0.64133   0.64335   1.000
    C158    C    0.94885   0.14129   0.64335   1.000
    C159    C    0.94887   0.64133   0.64335   1.000
    C160    C    0.03321   0.09898   0.64198   1.000
    C161    C    0.03323   0.59902   0.64197   1.000
    C162    C    0.53320   0.09898   0.64198   1.000
    C163    C    0.53323   0.59902   0.64197   1.000
    C164    C    0.00464   0.13978   0.43243   1.000
    C165    C    0.00464   0.63983   0.43244   1.000
    C166    C    0.50463   0.13978   0.43243   1.000
    C167    C    0.50463   0.63983   0.43244   1.000
    C168    C    0.39406   0.15399   0.41127   1.000
    C169    C    0.39406   0.65403   0.41129   1.000
    C170    C    0.89406   0.15399   0.41127   1.000
    C171    C    0.89405   0.65403   0.41129   1.000
    C172    C    0.33510   0.19312   0.51192   1.000
    C173    C    0.33511   0.69317   0.51194   1.000
    C174    C    0.83509   0.19311   0.51192   1.000
    C175    C    0.83510   0.69317   0.51194   1.000
    C176    C    0.34052   0.13894   0.67255   1.000
    C177    C    0.34054   0.63897   0.67255   1.000
    C178    C    0.84051   0.13894   0.67255   1.000
    C179    C    0.84053   0.63897   0.67255   1.000
    C180    C    0.31721   0.09315   0.70046   1.000
    C181    C    0.31724   0.59318   0.70045   1.000
    C182    C    0.81721   0.09315   0.70046   1.000
    C183    C    0.81723   0.59318   0.70045   1.000
    C184    C    0.00960   0.05426   0.67120   1.000
    C185    C    0.00962   0.55430   0.67123   1.000
    C186    C    0.50959   0.05426   0.67125   1.000
    C187    C    0.50962   0.55430   0.67123   1.000
    C188    C    0.03079   0.15222   0.49295   1.000
    C189    C    0.03080   0.65227   0.49296   1.000
    C190    C    0.53078   0.15222   0.49295   1.000
    C191    C    0.53079   0.65227   0.49296   1.000
    C192    C    0.40120   0.05083   0.70049   1.000
    C193    C    0.40123   0.55085   0.70047   1.000
    C194    C    0.90120   0.05083   0.70049   1.000
    C195    C    0.90123   0.55085   0.70047   1.000
    C196    C    0.30978   0.18005   0.45140   1.000
    C197    C    0.30978   0.68011   0.45145   1.000
    C198    C    0.80976   0.18005   0.45144   1.000
    C199    C    0.80977   0.68010   0.45145   1.000
    C200    C    0.12687   0.24721   0.76655   1.000
    C201    C    0.12684   0.74722   0.76655   1.000
    C202    C    0.62686   0.24721   0.76655   1.000
    C203    C    0.62683   0.74722   0.76655   1.000
    C204    C    0.11394   0.10923   0.15359   1.000
    C205    C    0.11393   0.60922   0.15362   1.000
    C206    C    0.61394   0.10923   0.15359   1.000
    C207    C    0.61393   0.60922   0.15362   1.000
    C208    C    0.19659   0.07027   0.96766   1.000
    C209    C    0.19656   0.57028   0.96768   1.000
    C210    C    0.69659   0.07027   0.96766   1.000
    C211    C    0.69655   0.57028   0.96768   1.000
    C212    C    0.19909   0.10847   0.85644   1.000
    C213    C    0.19905   0.60849   0.85646   1.000
    C214    C    0.69908   0.10847   0.85644   1.000
    C215    C    0.69904   0.60849   0.85646   1.000
    C216    C    0.28338   0.15075   0.85783   1.000
    C217    C    0.28334   0.65077   0.85785   1.000
    C218    C    0.78337   0.15075   0.85783   1.000
    C219    C    0.78333   0.65077   0.85785   1.000
    C220    C    0.25469   0.11019   0.06733   1.000
    C221    C    0.25467   0.61018   0.06735   1.000
    C222    C    0.75468   0.11019   0.06733   1.000
    C223    C    0.75466   0.61018   0.06735   1.000
    C224    C    0.14413   0.09603   0.08851   1.000
    C225    C    0.14411   0.59603   0.08853   1.000
    C226    C    0.64413   0.09603   0.08851   1.000
    C227    C    0.64410   0.59603   0.08853   1.000
    C228    C    0.08521   0.05681   0.98792   1.000
    C229    C    0.08518   0.55683   0.98790   1.000
    C230    C    0.58520   0.05681   0.98792   1.000
    C231    C    0.58517   0.55682   0.98794   1.000
    C232    C    0.09075   0.11088   0.82727   1.000
    C233    C    0.09071   0.61090   0.82728   1.000
    C234    C    0.59074   0.11088   0.82727   1.000
    C235    C    0.59071   0.61090   0.82728   1.000
    C236    C    0.06739   0.15670   0.79940   1.000
    C237    C    0.06736   0.65671   0.79940   1.000
    C238    C    0.56738   0.15670   0.79940   1.000
    C239    C    0.56735   0.65671   0.79940   1.000
    C240    C    0.25971   0.19551   0.82861   1.000
    C241    C    0.25967   0.69552   0.82860   1.000
    C242    C    0.75970   0.19551   0.82861   1.000
    C243    C    0.75966   0.69552   0.82860   1.000
    C244    C    0.28086   0.09768   0.00681   1.000
    C245    C    0.28083   0.59767   0.00683   1.000
    C246    C    0.78085   0.09767   0.00681   1.000
    C247    C    0.78082   0.59767   0.00683   1.000
    C248    C    0.15133   0.19901   0.79940   1.000
    C249    C    0.15129   0.69902   0.79941   1.000
    C250    C    0.65132   0.19901   0.79940   1.000
    C251    C    0.65129   0.69902   0.79941   1.000
    C252    C    0.05989   0.06995   0.04800   1.000
    C253    C    0.05986   0.56996   0.04840   1.000
    C254    C    0.55988   0.06995   0.04839   1.000
    C255    C    0.55985   0.56995   0.04842   1.000
    C256    C    0.12315   0.49732   0.26658   1.000
    C257    C    0.12319   0.99733   0.26655   1.000
    C258    C    0.62315   0.49732   0.26658   1.000
    C259    C    0.62319   0.99733   0.26655   1.000
    C260    C    0.13597   0.35917   0.65380   1.000
    C261    C    0.13594   0.85920   0.65383   1.000
    C262    C    0.63597   0.35917   0.65380   1.000
    C263    C    0.63593   0.85920   0.65383   1.000
    C264    C    0.05348   0.32038   0.46780   1.000
    C265    C    0.05349   0.82044   0.46784   1.000
    C266    C    0.55347   0.32038   0.46783   1.000
    C267    C    0.55348   0.82044   0.46784   1.000
    C268    C    0.05110   0.35870   0.35663   1.000
    C269    C    0.05113   0.85875   0.35664   1.000
    C270    C    0.55110   0.35870   0.35663   1.000
    C271    C    0.55112   0.85875   0.35664   1.000
    C272    C    0.46675   0.40101   0.35801   1.000
    C273    C    0.46678   0.90106   0.35801   1.000
    C274    C    0.96674   0.40101   0.35801   1.000
    C275    C    0.96677   0.90106   0.35801   1.000
    C276    C    0.49534   0.36021   0.56755   1.000
    C277    C    0.49534   0.86026   0.56750   1.000
    C278    C    0.99532   0.36020   0.56755   1.000
    C279    C    0.99533   0.86025   0.56750   1.000
    C280    C    0.10591   0.34600   0.58870   1.000
    C281    C    0.10591   0.84605   0.58872   1.000
    C282    C    0.60591   0.34600   0.58870   1.000
    C283    C    0.60591   0.84605   0.58872   1.000
    C284    C    0.16487   0.30687   0.48805   1.000
    C285    C    0.16488   0.80693   0.48800   1.000
    C286    C    0.66486   0.30686   0.48805   1.000
    C287    C    0.66487   0.80693   0.48807   1.000
    C288    C    0.15944   0.36105   0.32744   1.000
    C289    C    0.15947   0.86109   0.32744   1.000
    C290    C    0.65944   0.36105   0.32744   1.000
    C291    C    0.65946   0.86109   0.32744   1.000
    C292    C    0.18274   0.40684   0.29953   1.000
    C293    C    0.18278   0.90687   0.29952   1.000
    C294    C    0.68274   0.40684   0.29953   1.000
    C295    C    0.68277   0.90687   0.29952   1.000
    C296    C    0.49036   0.44573   0.32875   1.000
    C297    C    0.49040   0.94577   0.32870   1.000
    C298    C    0.99035   0.44573   0.32875   1.000
    C299    C    0.99039   0.94577   0.32874   1.000
    C300    C    0.46918   0.34777   0.50703   1.000
    C301    C    0.46919   0.84782   0.50700   1.000
    C302    C    0.96917   0.34776   0.50703   1.000
    C303    C    0.96918   0.84782   0.50705   1.000
    C304    C    0.09875   0.44917   0.29951   1.000
    C305    C    0.09879   0.94920   0.29900   1.000
    C306    C    0.59875   0.44917   0.29951   1.000
    C307    C    0.59878   0.94920   0.29949   1.000
    C308    C    0.19020   0.31994   0.54853   1.000
    C309    C    0.19021   0.81999   0.54855   1.000
    C310    C    0.69019   0.31993   0.54853   1.000
    C311    C    0.69020   0.81998   0.54855   1.000
    C312    C    0.37312   0.25280   0.23344   1.000
    C313    C    0.37310   0.75280   0.23343   1.000
    C314    C    0.87312   0.25280   0.23344   1.000
    C315    C    0.87309   0.75280   0.23343   1.000
    C316    C    0.38603   0.39080   0.84636   1.000
    C317    C    0.38602   0.89080   0.84639   1.000
    C318    C    0.88602   0.39080   0.84636   1.000
    C319    C    0.88602   0.89080   0.84639   1.000
    C320    C    0.30343   0.42975   0.03230   1.000
    C321    C    0.30339   0.92976   0.03232   1.000
    C322    C    0.80342   0.42975   0.03230   1.000
    C323    C    0.80338   0.92976   0.03232   1.000
    C324    C    0.30093   0.39153   0.14350   1.000
    C325    C    0.30089   0.89155   0.14354   1.000
    C326    C    0.80092   0.39153   0.14353   1.000
    C327    C    0.80088   0.89155   0.14354   1.000
    C328    C    0.21663   0.34925   0.14214   1.000
    C329    C    0.21659   0.84927   0.14216   1.000
    C330    C    0.71662   0.34925   0.14214   1.000
    C331    C    0.71658   0.84927   0.14210   1.000
    C332    C    0.24530   0.38985   0.93263   1.000
    C333    C    0.24529   0.88984   0.93266   1.000
    C334    C    0.74531   0.38984   0.93263   1.000
    C335    C    0.74528   0.88984   0.93266   1.000
    C336    C    0.35586   0.40400   0.91145   1.000
    C337    C    0.35584   0.90400   0.91147   1.000
    C338    C    0.85586   0.40400   0.91145   1.000
    C339    C    0.85583   0.90400   0.91147   1.000
    C340    C    0.41480   0.44320   0.01204   1.000
    C341    C    0.41476   0.94322   0.01207   1.000
    C342    C    0.91479   0.44320   0.01204   1.000
    C343    C    0.91476   0.94321   0.01207   1.000
    C344    C    0.40926   0.38912   0.17270   1.000
    C345    C    0.40923   0.88914   0.17272   1.000
    C346    C    0.90926   0.38912   0.17270   1.000
    C347    C    0.90922   0.88914   0.17272   1.000
    C348    C    0.43261   0.34330   0.20058   1.000
    C349    C    0.43258   0.84332   0.20059   1.000
    C350    C    0.93261   0.34330   0.20058   1.000
    C351    C    0.93257   0.84332   0.20059   1.000
    C352    C    0.24030   0.30450   0.17136   1.000
    C353    C    0.24026   0.80452   0.17138   1.000
    C354    C    0.74029   0.30450   0.17136   1.000
    C355    C    0.74025   0.80452   0.17138   1.000
    C356    C    0.21915   0.40236   0.99315   1.000
    C357    C    0.21912   0.90235   0.99318   1.000
    C358    C    0.71914   0.40235   0.99315   1.000
    C359    C    0.71911   0.90235   0.99318   1.000
    C360    C    0.34867   0.30100   0.20058   1.000
    C361    C    0.34864   0.80101   0.20059   1.000
    C362    C    0.84867   0.30100   0.20058   1.000
    C363    C    0.84863   0.80101   0.20059   1.000
    C364    C    0.44012   0.43007   0.95156   1.000
    C365    C    0.44008   0.93008   0.95159   1.000
    C366    C    0.94011   0.43008   0.95156   1.000
    C367    C    0.94008   0.93008   0.95159   1.000
    C368    C    0.48452   0.19932   0.60850   1.000
    C369    C    0.48452   0.69937   0.60860   1.000
    C370    C    0.98451   0.19932   0.60850   1.000
    C371    C    0.98451   0.69937   0.60860   1.000
    C372    C    0.23460   0.05041   0.89124   1.000
    C373    C    0.23457   0.55043   0.89126   1.000
    C374    C    0.73460   0.05041   0.89124   1.000
    C375    C    0.73456   0.55043   0.89126   1.000
    C376    C    0.01545   0.30066   0.39139   1.000
    C377    C    0.01545   0.80072   0.39141   1.000
    C378    C    0.51544   0.30066   0.39139   1.000
    C379    C    0.51544   0.80072   0.39141   1.000
    C380    C    0.26541   0.44959   0.10873   1.000
    C381    C    0.26538   0.94961   0.10874   1.000
    C382    C    0.76540   0.44959   0.10873   1.000
    C383    C    0.76537   0.94961   0.10874   1.000
    C384    C    0.40496   0.24536   0.63240   1.000
    C385    C    0.40492   0.74540   0.63241   1.000
    C386    C    0.90495   0.24536   0.63240   1.000
    C387    C    0.90491   0.74540   0.63241   1.000
    C388    C    0.44950   0.13165   0.30873   1.000
    C389    C    0.44946   0.63167   0.30874   1.000
    C390    C    0.94950   0.13165   0.30873   1.000
    C391    C    0.94945   0.63167   0.30874   1.000
    C392    C    0.11243   0.20686   0.61192   1.000
    C393    C    0.11242   0.70694   0.61194   1.000
    C394    C    0.61242   0.20685   0.61192   1.000
    C395    C    0.61241   0.70694   0.61194   1.000
    C396    C    0.26884   0.49061   0.74028   1.000
    C397    C    0.26879   0.99061   0.74000   1.000
    C398    C    0.76884   0.49061   0.74028   1.000
    C399    C    0.76879   0.99061   0.74000   1.000
    C400    C    0.46594   0.47895   0.75191   1.000
    C401    C    0.46589   0.97895   0.75190   1.000
    C402    C    0.96593   0.47895   0.75191   1.000
    C403    C    0.96588   0.97895   0.75190   1.000
    C404    C    0.25592   0.13706   0.33122   1.000
    C405    C    0.25588   0.63710   0.33126   1.000
    C406    C    0.75592   0.13706   0.33122   1.000
    C407    C    0.75588   0.63710   0.33126   1.000
    C408    C    0.15477   0.00451   0.86753   1.000
    C409    C    0.15477   0.50452   0.86753   1.000
    C410    C    0.65477   0.00451   0.86753   1.000
    C411    C    0.65476   0.50452   0.86753   1.000
    C412    C    0.19932   0.11845   0.19106   1.000
    C413    C    0.19932   0.61845   0.19108   1.000
    C414    C    0.69932   0.11845   0.19106   1.000
    C415    C    0.69931   0.61845   0.19108   1.000
    C416    C    0.36244   0.04258   0.88785   1.000
    C417    C    0.36241   0.54261   0.88787   1.000
    C418    C    0.86243   0.04258   0.88785   1.000
    C419    C    0.86241   0.54261   0.88787   1.000
    C420    C    0.01884   0.25934   0.75972   1.000
    C421    C    0.01881   0.75935   0.75972   1.000
    C422    C    0.51884   0.25934   0.75972   1.000
    C423    C    0.51881   0.75935   0.75972   1.000
    C424    C    0.21590   0.27100   0.74807   1.000
    C425    C    0.21588   0.77101   0.74807   1.000
    C426    C    0.71589   0.27100   0.74807   1.000
    C427    C    0.71587   0.77101   0.74807   1.000
    C428    C    0.00577   0.11293   0.16844   1.000
    C429    C    0.00577   0.61292   0.16848   1.000
    C430    C    0.50577   0.11293   0.16844   1.000
    C431    C    0.50576   0.61292   0.16848   1.000
    C432    C    0.09503   0.25463   0.36758   1.000
    C433    C    0.09499   0.75466   0.36759   1.000
    C434    C    0.59502   0.25463   0.36758   1.000
    C435    C    0.59498   0.75467   0.36759   1.000
    C436    C    0.05051   0.36835   0.69124   1.000
    C437    C    0.05046   0.86836   0.69126   1.000
    C438    C    0.55051   0.36835   0.69124   1.000
    C439    C    0.55046   0.86836   0.69126   1.000
    C440    C    0.38754   0.29312   0.38805   1.000
    C441    C    0.38753   0.79320   0.38808   1.000
    C442    C    0.88753   0.29311   0.38805   1.000
    C443    C    0.88753   0.79320   0.38808   1.000
    C444    C    0.23121   0.00941   0.25969   1.000
    C445    C    0.23115   0.50941   0.25971   1.000
    C446    C    0.73120   0.00941   0.25969   1.000
    C447    C    0.73115   0.50941   0.25970   1.000
    C448    C    0.03411   0.02107   0.24801   1.000
    C449    C    0.03406   0.52107   0.24806   1.000
    C450    C    0.53411   0.02107   0.24801   1.000
    C451    C    0.53405   0.52107   0.24806   1.000
    C452    C    0.24409   0.36293   0.66872   1.000
    C453    C    0.24405   0.86296   0.66878   1.000
    C454    C    0.74408   0.36293   0.66872   1.000
    C455    C    0.74404   0.86296   0.66878   1.000
    C456    C    0.34522   0.49549   0.13246   1.000
    C457    C    0.34521   0.99551   0.13246   1.000
    C458    C    0.84521   0.49550   0.13246   1.000
    C459    C    0.84521   0.99551   0.13246   1.000
    C460    C    0.30064   0.38157   0.80890   1.000
    C461    C    0.30064   0.88157   0.80893   1.000
    C462    C    0.80063   0.38157   0.80890   1.000
    C463    C    0.80063   0.88157   0.80893   1.000
    C464    C    0.13757   0.45742   0.11212   1.000
    C465    C    0.13754   0.95745   0.11214   1.000
    C466    C    0.63756   0.45742   0.11212   1.000
    C467    C    0.63754   0.95745   0.11214   1.000
    C468    C    0.48114   0.24067   0.24027   1.000
    C469    C    0.48112   0.74067   0.24026   1.000
    C470    C    0.98114   0.24067   0.24027   1.000
    C471    C    0.98111   0.74067   0.24026   1.000
    C472    C    0.28408   0.22901   0.25191   1.000
    C473    C    0.28406   0.72902   0.25191   1.000
    C474    C    0.78408   0.22901   0.25191   1.000
    C475    C    0.78405   0.72902   0.25191   1.000
    C476    C    0.49419   0.38710   0.83140   1.000
    C477    C    0.49419   0.88710   0.83154   1.000
    C478    C    0.99418   0.38710   0.83149   1.000
    C479    C    0.99418   0.88710   0.83150   1.000
    O480    O    0.26777   0.10393   0.03707   1.000
    O481    O    0.23872   0.08397   0.98724   1.000
    O482    O    0.32385   0.10290   0.99852   1.000
    O483    O    0.76777   0.10393   0.03707   1.000
    O484    O    0.73872   0.08397   0.98724   1.000
    O485    O    0.82385   0.10289   0.99852   1.000
    O486    O    0.76774   0.60393   0.03709   1.000
    O487    O    0.73869   0.58397   0.98726   1.000
    O488    O    0.82381   0.60290   0.99854   1.000
    O489    O    0.26775   0.60392   0.03709   1.000
    O490    O    0.23869   0.58397   0.98726   1.000
    O491    O    0.32383   0.60289   0.99854   1.000
    O492    O    0.67615   0.39713   0.00144   1.000
    O493    O    0.17615   0.39714   0.00144   1.000
    O494    O    0.67612   0.89713   0.00147   1.000
    O495    O    0.17613   0.89713   0.00147   1.000
    O496    O    0.85911   0.43648   0.02217   1.000
    O497    O    0.94739   0.45344   0.02764   1.000
    O498    O    0.92745   0.43664   0.98180   1.000
    O499    O    0.35911   0.43647   0.02217   1.000
    O500    O    0.44740   0.45343   0.02764   1.000
    O501    O    0.42746   0.43663   0.98180   1.000
    O502    O    0.35907   0.93649   0.02220   1.000
    O503    O    0.44736   0.95345   0.02767   1.000
    O504    O    0.42742   0.93665   0.98183   1.000
    O505    O    0.85907   0.93648   0.02220   1.000
    O506    O    0.94735   0.95344   0.02767   1.000
    O507    O    0.92742   0.93664   0.98183   1.000
    O508    O    0.78441   0.43967   0.07052   1.000
    O509    O    0.76128   0.41605   0.01273   1.000
    O510    O    0.28442   0.43967   0.07052   1.000
    O511    O    0.26129   0.41605   0.01273   1.000
    O512    O    0.78438   0.93968   0.07053   1.000
    O513    O    0.76125   0.91606   0.01275   1.000
    O514    O    0.28438   0.93968   0.07053   1.000
    O515    O    0.26125   0.91605   0.01275   1.000
    O516    O    0.01726   0.06460   0.05679   1.000
    O517    O    0.10201   0.08299   0.06826   1.000
    O518    O    0.07255   0.06338   0.01796   1.000
    O519    O    0.51725   0.06460   0.05699   1.000
    O520    O    0.60200   0.08299   0.06845   1.000
    O521    O    0.57254   0.06338   0.01816   1.000
    O522    O    0.01722   0.56461   0.05700   1.000
    O523    O    0.10198   0.58299   0.06847   1.000
    O524    O    0.07252   0.56339   0.01815   1.000
    O525    O    0.51723   0.56460   0.05701   1.000
    O526    O    0.60198   0.58299   0.06848   1.000
    O527    O    0.57251   0.56338   0.01818   1.000
    O528    O    0.69941   0.10311   0.07792   1.000
    O529    O    0.78752   0.12034   0.08293   1.000
    O530    O    0.19941   0.10311   0.07792   1.000
    O531    O    0.28752   0.12034   0.08293   1.000
    O532    O    0.69938   0.60310   0.07794   1.000
    O533    O    0.78750   0.62033   0.08295   1.000
    O534    O    0.19939   0.60310   0.07794   1.000
    O535    O    0.28751   0.62032   0.08295   1.000
    O536    O    0.62903   0.10263   0.12105   1.000
    O537    O    0.12904   0.10263   0.12105   1.000
    O538    O    0.62901   0.60262   0.12108   1.000
    O539    O    0.12902   0.60262   0.12108   1.000
    O540    O    0.20149   0.45350   0.11043   1.000
    O541    O    0.30531   0.47254   0.12060   1.000
    O542    O    0.28317   0.42056   0.12612   1.000
    O543    O    0.70148   0.45350   0.11043   1.000
    O544    O    0.80531   0.47254   0.12060   1.000
    O545    O    0.78316   0.42056   0.12613   1.000
    O546    O    0.20146   0.95353   0.11044   1.000
    O547    O    0.30530   0.97256   0.12060   1.000
    O548    O    0.28313   0.92058   0.12614   1.000
    O549    O    0.70146   0.95353   0.11044   1.000
    O550    O    0.80529   0.97256   0.12060   1.000
    O551    O    0.78313   0.92058   0.12614   1.000
    O552    O    0.67433   0.85078   0.13100   1.000
    O553    O    0.67438   0.35076   0.13104   1.000
    O554    O    0.17439   0.35076   0.13104   1.000
    O555    O    0.17434   0.85078   0.13107   1.000
    O556    O    0.75873   0.87041   0.14282   1.000
    O557    O    0.72842   0.82689   0.15674   1.000
    O558    O    0.75877   0.37039   0.14284   1.000
    O559    O    0.72846   0.32688   0.15675   1.000
    O560    O    0.25878   0.37039   0.14282   1.000
    O561    O    0.22847   0.32687   0.15675   1.000
    O562    O    0.25874   0.87041   0.14285   1.000
    O563    O    0.22842   0.82690   0.15677   1.000
    O564    O    0.35509   0.39032   0.15810   1.000
    O565    O    0.85509   0.39032   0.15812   1.000
    O566    O    0.85505   0.89034   0.15813   1.000
    O567    O    0.35506   0.89034   0.15813   1.000
    O568    O    0.55985   0.11108   0.16102   1.000
    O569    O    0.65663   0.11384   0.17233   1.000
    O570    O    0.05986   0.11108   0.16102   1.000
    O571    O    0.15663   0.11384   0.17233   1.000
    O572    O    0.55984   0.61107   0.16105   1.000
    O573    O    0.65662   0.61383   0.17235   1.000
    O574    O    0.05985   0.61107   0.16105   1.000
    O575    O    0.15663   0.61383   0.17235   1.000
    O576    O    0.70697   0.28849   0.17211   1.000
    O577    O    0.79448   0.30275   0.18597   1.000
    O578    O    0.20697   0.28849   0.17208   1.000
    O579    O    0.29449   0.30275   0.18597   1.000
    O580    O    0.70693   0.78851   0.17212   1.000
    O581    O    0.79444   0.80277   0.18598   1.000
    O582    O    0.20694   0.78851   0.17212   1.000
    O583    O    0.29445   0.80277   0.18598   1.000
    O584    O    0.44110   0.40596   0.17343   1.000
    O585    O    0.42094   0.36621   0.18664   1.000
    O586    O    0.94110   0.40596   0.17343   1.000
    O587    O    0.92093   0.36621   0.18664   1.000
    O588    O    0.44107   0.90598   0.17345   1.000
    O589    O    0.42090   0.86623   0.18666   1.000
    O590    O    0.94106   0.90598   0.17345   1.000
    O591    O    0.92089   0.86623   0.18666   1.000
    O592    O    0.89064   0.32215   0.20058   1.000
    O593    O    0.86089   0.27690   0.21701   1.000
    O594    O    0.97431   0.34186   0.21218   1.000
    O595    O    0.39064   0.32215   0.20058   1.000
    O596    O    0.47431   0.34186   0.21218   1.000
    O597    O    0.36090   0.27690   0.21701   1.000
    O598    O    0.89060   0.82217   0.20059   1.000
    O599    O    0.86086   0.77691   0.21701   1.000
    O600    O    0.97428   0.84188   0.21219   1.000
    O601    O    0.39061   0.82217   0.20059   1.000
    O602    O    0.36087   0.77691   0.21701   1.000
    O603    O    0.47428   0.84187   0.21215   1.000
    O604    O    0.95061   0.04431   0.23560   1.000
    O605    O    0.79915   0.03848   0.24144   1.000
    O606    O    0.45061   0.04431   0.23560   1.000
    O607    O    0.29915   0.03848   0.24144   1.000
    O608    O    0.95056   0.54431   0.23564   1.000
    O609    O    0.79911   0.53848   0.24146   1.000
    O610    O    0.45056   0.54431   0.23564   1.000
    O611    O    0.29911   0.53848   0.24147   1.000
    O612    O    0.42711   0.74674   0.23685   1.000
    O613    O    0.32858   0.74091   0.24267   1.000
    O614    O    0.92710   0.74674   0.23685   1.000
    O615    O    0.82857   0.74091   0.24267   1.000
    O616    O    0.92713   0.24673   0.23686   1.000
    O617    O    0.82860   0.24090   0.24268   1.000
    O618    O    0.42713   0.24673   0.23686   1.000
    O619    O    0.32860   0.24090   0.24268   1.000
    O620    O    0.04911   0.71162   0.25849   1.000
    O621    O    0.54911   0.71162   0.25849   1.000
    O622    O    0.04914   0.21161   0.25848   1.000
    O623    O    0.54914   0.21161   0.25848   1.000
    O624    O    0.57865   0.00920   0.25728   1.000
    O625    O    0.07865   0.00920   0.25728   1.000
    O626    O    0.57860   0.50919   0.25732   1.000
    O627    O    0.07860   0.50919   0.25732   1.000
    O628    O    0.20061   0.20578   0.26430   1.000
    O629    O    0.70058   0.70579   0.26431   1.000
    O630    O    0.70060   0.20578   0.26430   1.000
    O631    O    0.20059   0.70579   0.26431   1.000
    O632    O    0.17720   0.00337   0.26312   1.000
    O633    O    0.67719   0.00337   0.26312   1.000
    O634    O    0.67715   0.50336   0.26314   1.000
    O635    O    0.17715   0.50336   0.26315   1.000
    O636    O    0.61098   0.97327   0.28302   1.000
    O637    O    0.11099   0.97327   0.28278   1.000
    O638    O    0.11095   0.47324   0.28305   1.000
    O639    O    0.61095   0.47324   0.28305   1.000
    O640    O    0.72447   0.90830   0.28791   1.000
    O641    O    0.22448   0.90829   0.28792   1.000
    O642    O    0.72445   0.40827   0.28794   1.000
    O643    O    0.22445   0.40827   0.28794   1.000
    O644    O    0.14078   0.92804   0.29926   1.000
    O645    O    0.04459   0.94749   0.31387   1.000
    O646    O    0.64078   0.92804   0.29951   1.000
    O647    O    0.54459   0.94748   0.31410   1.000
    O648    O    0.14075   0.42801   0.29952   1.000
    O649    O    0.04455   0.44745   0.31413   1.000
    O650    O    0.64074   0.42801   0.29952   1.000
    O651    O    0.54455   0.44745   0.31413   1.000
    O652    O    0.17112   0.88398   0.31348   1.000
    O653    O    0.67112   0.88398   0.31348   1.000
    O654    O    0.17109   0.38395   0.31349   1.000
    O655    O    0.67109   0.38395   0.31349   1.000
    O656    O    0.40677   0.13624   0.32745   1.000
    O657    O    0.90676   0.13624   0.32745   1.000
    O658    O    0.90672   0.63626   0.32742   1.000
    O659    O    0.40673   0.63626   0.32742   1.000
    O660    O    0.19130   0.34420   0.32672   1.000
    O661    O    0.69132   0.84423   0.32672   1.000
    O662    O    0.69130   0.34420   0.32672   1.000
    O663    O    0.19132   0.84423   0.32672   1.000
    O664    O    0.45704   0.96178   0.32796   1.000
    O665    O    0.95704   0.96178   0.32798   1.000
    O666    O    0.45701   0.46175   0.32800   1.000
    O667    O    0.95700   0.46175   0.32800   1.000
    O668    O    0.60529   0.85992   0.34204   1.000
    O669    O    0.60527   0.35988   0.34204   1.000
    O670    O    0.10530   0.85992   0.34204   1.000
    O671    O    0.10527   0.35988   0.34204   1.000
    O672    O    0.47859   0.92341   0.34336   1.000
    O673    O    0.97858   0.92341   0.34338   1.000
    O674    O    0.97855   0.42337   0.34338   1.000
    O675    O    0.47855   0.42337   0.34338   1.000
    O676    O    0.80997   0.13894   0.33869   1.000
    O677    O    0.30998   0.13894   0.33869   1.000
    O678    O    0.30994   0.63897   0.33868   1.000
    O679    O    0.80994   0.63897   0.33868   1.000
    O680    O    0.87902   0.64744   0.37870   1.000
    O681    O    0.37903   0.64744   0.37870   1.000
    O682    O    0.87904   0.14740   0.37872   1.000
    O683    O    0.37904   0.14740   0.37872   1.000
    O684    O    0.00892   0.37986   0.35732   1.000
    O685    O    0.03327   0.32968   0.37401   1.000
    O686    O    0.50892   0.37986   0.35732   1.000
    O687    O    0.53327   0.32968   0.37401   1.000
    O688    O    0.00895   0.87990   0.35733   1.000
    O689    O    0.03329   0.82973   0.37403   1.000
    O690    O    0.50895   0.87990   0.35733   1.000
    O691    O    0.53328   0.82973   0.37403   1.000
    O692    O    0.92452   0.89957   0.36911   1.000
    O693    O    0.92449   0.39952   0.36911   1.000
    O694    O    0.42453   0.89957   0.36911   1.000
    O695    O    0.42450   0.39952   0.36911   1.000
    O696    O    0.55523   0.27765   0.37949   1.000
    O697    O    0.05524   0.27765   0.37949   1.000
    O698    O    0.55521   0.77769   0.37950   1.000
    O699    O    0.05522   0.77769   0.37950   1.000
    O700    O    0.45149   0.29689   0.38972   1.000
    O701    O    0.95149   0.29689   0.38972   1.000
    O702    O    0.45149   0.79696   0.38975   1.000
    O703    O    0.95149   0.79696   0.38975   1.000
    O704    O    0.53446   0.31052   0.42961   1.000
    O705    O    0.03446   0.31052   0.42960   1.000
    O706    O    0.53446   0.81058   0.42963   1.000
    O707    O    0.03447   0.81058   0.42963   1.000
    O708    O    0.03750   0.12964   0.41682   1.000
    O709    O    0.53749   0.12963   0.41682   1.000
    O710    O    0.03750   0.62968   0.41682   1.000
    O711    O    0.53749   0.62968   0.41683   1.000
    O712    O    0.94935   0.14688   0.42185   1.000
    O713    O    0.85191   0.16702   0.43136   1.000
    O714    O    0.44934   0.14688   0.42185   1.000
    O715    O    0.35192   0.16702   0.43134   1.000
    O716    O    0.94935   0.64693   0.42187   1.000
    O717    O    0.85191   0.66707   0.43137   1.000
    O718    O    0.44935   0.64693   0.42187   1.000
    O719    O    0.35192   0.66707   0.43137   1.000
    O720    O    0.01772   0.14600   0.46269   1.000
    O721    O    0.51770   0.14600   0.46269   1.000
    O722    O    0.51771   0.64605   0.46270   1.000
    O723    O    0.01772   0.64605   0.46270   1.000
    O724    O    0.26713   0.18543   0.44285   1.000
    O725    O    0.26714   0.68548   0.44288   1.000
    O726    O    0.76712   0.18542   0.44287   1.000
    O727    O    0.76713   0.68547   0.44289   1.000
    O728    O    0.32244   0.18659   0.48166   1.000
    O729    O    0.82243   0.18658   0.48168   1.000
    O730    O    0.32244   0.68664   0.48170   1.000
    O731    O    0.82243   0.68664   0.48170   1.000
    O732    O    0.19749   0.29665   0.47244   1.000
    O733    O    0.69748   0.29664   0.47244   1.000
    O734    O    0.69749   0.79670   0.47246   1.000
    O735    O    0.19750   0.79671   0.47242   1.000
    O736    O    0.10917   0.31363   0.47793   1.000
    O737    O    0.01132   0.33407   0.48742   1.000
    O738    O    0.60916   0.31362   0.47794   1.000
    O739    O    0.51133   0.33407   0.48743   1.000
    O740    O    0.60918   0.81368   0.47796   1.000
    O741    O    0.51134   0.83413   0.48742   1.000
    O742    O    0.10919   0.81368   0.47792   1.000
    O743    O    0.01134   0.83413   0.48745   1.000
    O744    O    0.17754   0.81346   0.51828   1.000
    O745    O    0.17753   0.31340   0.51829   1.000
    O746    O    0.67752   0.31340   0.51829   1.000
    O747    O    0.67753   0.81346   0.51831   1.000
    O748    O    0.42617   0.35302   0.49876   1.000
    O749    O    0.92616   0.35301   0.49876   1.000
    O750    O    0.92617   0.85306   0.49878   1.000
    O751    O    0.42618   0.85307   0.49875   1.000
    O752    O    0.57378   0.14697   0.50123   1.000
    O753    O    0.48863   0.16591   0.51255   1.000
    O754    O    0.07380   0.14698   0.50122   1.000
    O755    O    0.98863   0.16591   0.51255   1.000
    O756    O    0.57379   0.64702   0.50124   1.000
    O757    O    0.48864   0.66597   0.51256   1.000
    O758    O    0.07381   0.64703   0.50124   1.000
    O759    O    0.98864   0.66597   0.51256   1.000
    O760    O    0.48226   0.85404   0.53725   1.000
    O761    O    0.98225   0.35398   0.53729   1.000
    O762    O    0.48226   0.35399   0.53729   1.000
    O763    O    0.98225   0.85404   0.53728   1.000
    O764    O    0.39079   0.18636   0.52204   1.000
    O765    O    0.30248   0.20334   0.52754   1.000
    O766    O    0.89078   0.18636   0.52204   1.000
    O767    O    0.80246   0.20333   0.52754   1.000
    O768    O    0.89079   0.68641   0.52205   1.000
    O769    O    0.80248   0.70339   0.52755   1.000
    O770    O    0.39080   0.68642   0.52205   1.000
    O771    O    0.30249   0.70340   0.52755   1.000
    O772    O    0.46550   0.18946   0.57033   1.000
    O773    O    0.96549   0.18946   0.57033   1.000
    O774    O    0.46551   0.68952   0.57038   1.000
    O775    O    0.96550   0.68952   0.57038   1.000
    O776    O    0.73283   0.31456   0.55710   1.000
    O777    O    0.64805   0.33296   0.56862   1.000
    O778    O    0.23285   0.31457   0.55710   1.000
    O779    O    0.14806   0.33297   0.56862   1.000
    O780    O    0.73284   0.81461   0.55712   1.000
    O781    O    0.64805   0.83301   0.56864   1.000
    O782    O    0.23285   0.81462   0.55712   1.000
    O783    O    0.14806   0.83302   0.56864   1.000
    O784    O    0.05062   0.85315   0.57811   1.000
    O785    O    0.96247   0.87040   0.58315   1.000
    O786    O    0.55062   0.85315   0.57811   1.000
    O787    O    0.46248   0.87040   0.58315   1.000
    O788    O    0.55062   0.35310   0.57813   1.000
    O789    O    0.46248   0.37036   0.58316   1.000
    O790    O    0.05062   0.35310   0.57813   1.000
    O791    O    0.96247   0.37035   0.58317   1.000
    O792    O    0.62094   0.35259   0.62125   1.000
    O793    O    0.12094   0.35259   0.62125   1.000
    O794    O    0.62092   0.85262   0.62128   1.000
    O795    O    0.12093   0.85262   0.62128   1.000
    O796    O    0.04847   0.20309   0.61021   1.000
    O797    O    0.94473   0.22234   0.62045   1.000
    O798    O    0.96668   0.17030   0.62593   1.000
    O799    O    0.54847   0.20309   0.61021   1.000
    O800    O    0.44474   0.22234   0.62045   1.000
    O801    O    0.46669   0.17030   0.62593   1.000
    O802    O    0.54846   0.70316   0.61027   1.000
    O803    O    0.44472   0.72239   0.62051   1.000
    O804    O    0.46670   0.67035   0.62598   1.000
    O805    O    0.04846   0.70316   0.61027   1.000
    O806    O    0.94471   0.72239   0.62051   1.000
    O807    O    0.96669   0.67035   0.62598   1.000
    O808    O    0.07549   0.60051   0.63087   1.000
    O809    O    0.57548   0.60051   0.63087   1.000
    O810    O    0.07546   0.10047   0.63088   1.000
    O811    O    0.57546   0.10047   0.63088   1.000
    O812    O    0.49105   0.62017   0.64266   1.000
    O813    O    0.52142   0.57666   0.65660   1.000
    O814    O    0.99105   0.62017   0.64266   1.000
    O815    O    0.02143   0.57666   0.65660   1.000
    O816    O    0.99103   0.12013   0.64267   1.000
    O817    O    0.02140   0.07662   0.65659   1.000
    O818    O    0.49103   0.12013   0.64267   1.000
    O819    O    0.52140   0.07662   0.65662   1.000
    O820    O    0.89470   0.64015   0.65795   1.000
    O821    O    0.89468   0.14011   0.65795   1.000
    O822    O    0.39471   0.64015   0.65795   1.000
    O823    O    0.39469   0.14011   0.65795   1.000
    O824    O    0.69003   0.36105   0.66126   1.000
    O825    O    0.59324   0.36376   0.67252   1.000
    O826    O    0.19003   0.36105   0.66126   1.000
    O827    O    0.09324   0.36376   0.67252   1.000
    O828    O    0.68999   0.86108   0.66131   1.000
    O829    O    0.59320   0.86378   0.67255   1.000
    O830    O    0.18999   0.86108   0.66131   1.000
    O831    O    0.09320   0.86378   0.67255   1.000
    O832    O    0.04295   0.03825   0.67198   1.000
    O833    O    0.95540   0.05254   0.68585   1.000
    O834    O    0.54297   0.53828   0.67198   1.000
    O835    O    0.45543   0.55258   0.68585   1.000
    O836    O    0.04297   0.53828   0.67198   1.000
    O837    O    0.95542   0.55258   0.68585   1.000
    O838    O    0.54294   0.03825   0.67201   1.000
    O839    O    0.45540   0.05254   0.68587   1.000
    O840    O    0.30866   0.15580   0.67327   1.000
    O841    O    0.32887   0.11605   0.68651   1.000
    O842    O    0.30868   0.65583   0.67327   1.000
    O843    O    0.32889   0.61608   0.68650   1.000
    O844    O    0.80867   0.65583   0.67327   1.000
    O845    O    0.82888   0.61608   0.68650   1.000
    O846    O    0.80865   0.15580   0.67327   1.000
    O847    O    0.82886   0.11605   0.68651   1.000
    O848    O    0.35924   0.57202   0.70046   1.000
    O849    O    0.27553   0.59175   0.71205   1.000
    O850    O    0.85923   0.57202   0.70046   1.000
    O851    O    0.77553   0.59175   0.71203   1.000
    O852    O    0.35921   0.07199   0.70048   1.000
    O853    O    0.27551   0.09173   0.71206   1.000
    O854    O    0.85920   0.07199   0.70048   1.000
    O855    O    0.77550   0.09173   0.71206   1.000
    O856    O    0.38904   0.52678   0.71674   1.000
    O857    O    0.88903   0.52678   0.71693   1.000
    O858    O    0.38900   0.02676   0.71696   1.000
    O859    O    0.88900   0.02676   0.71696   1.000
    O860    O    0.29938   0.29422   0.73568   1.000
    O861    O    0.45085   0.28840   0.74150   1.000
    O862    O    0.79937   0.29422   0.73568   1.000
    O863    O    0.95085   0.28840   0.74150   1.000
    O864    O    0.29935   0.79423   0.73569   1.000
    O865    O    0.45082   0.78841   0.74151   1.000
    O866    O    0.79935   0.79423   0.73569   1.000
    O867    O    0.95082   0.78841   0.74151   1.000
    O868    O    0.32284   0.49666   0.73664   1.000
    O869    O    0.42139   0.49082   0.74246   1.000
    O870    O    0.82283   0.49666   0.73684   1.000
    O871    O    0.92138   0.49082   0.74265   1.000
    O872    O    0.32280   0.99665   0.73672   1.000
    O873    O    0.42134   0.99082   0.74267   1.000
    O874    O    0.82279   0.99665   0.73672   1.000
    O875    O    0.92134   0.99082   0.74267   1.000
    O876    O    0.20084   0.96154   0.75840   1.000
    O877    O    0.70083   0.96154   0.75840   1.000
    O878    O    0.70087   0.46154   0.75852   1.000
    O879    O    0.20088   0.46154   0.75852   1.000
    O880    O    0.67135   0.75911   0.75731   1.000
    O881    O    0.67138   0.25911   0.75731   1.000
    O882    O    0.17136   0.75911   0.75731   1.000
    O883    O    0.17138   0.25911   0.75731   1.000
    O884    O    0.04938   0.95571   0.76435   1.000
    O885    O    0.54938   0.95571   0.76435   1.000
    O886    O    0.04942   0.45571   0.76433   1.000
    O887    O    0.54942   0.45571   0.76433   1.000
    O888    O    0.07285   0.25328   0.76314   1.000
    O889    O    0.07283   0.75328   0.76314   1.000
    O890    O    0.57285   0.25328   0.76314   1.000
    O891    O    0.57282   0.75328   0.76314   1.000
    O892    O    0.13906   0.72312   0.78298   1.000
    O893    O    0.13910   0.22311   0.78298   1.000
    O894    O    0.63909   0.22311   0.78298   1.000
    O895    O    0.63906   0.72312   0.78298   1.000
    O896    O    0.02565   0.65816   0.78781   1.000
    O897    O    0.02568   0.15814   0.78781   1.000
    O898    O    0.52565   0.65816   0.78781   1.000
    O899    O    0.52568   0.15814   0.78781   1.000
    O900    O    0.10936   0.17785   0.79940   1.000
    O901    O    0.20552   0.19726   0.81401   1.000
    O902    O    0.60935   0.17785   0.79940   1.000
    O903    O    0.70551   0.19726   0.81401   1.000
    O904    O    0.60932   0.67787   0.79941   1.000
    O905    O    0.57903   0.63381   0.81334   1.000
    O906    O    0.57906   0.13379   0.81334   1.000
    O907    O    0.10933   0.67787   0.79941   1.000
    O908    O    0.07903   0.63380   0.81334   1.000
    O909    O    0.07907   0.13379   0.81334   1.000
    O910    O    0.70547   0.69727   0.81401   1.000
    O911    O    0.20548   0.69727   0.81401   1.000
    O912    O    0.84333   0.38618   0.82763   1.000
    O913    O    0.34333   0.38619   0.82763   1.000
    O914    O    0.34333   0.88618   0.82766   1.000
    O915    O    0.84333   0.88618   0.82766   1.000
    O916    O    0.05891   0.09404   0.82654   1.000
    O917    O    0.55890   0.09404   0.82654   1.000
    O918    O    0.55886   0.59405   0.82654   1.000
    O919    O    0.05887   0.59405   0.82655   1.000
    O920    O    0.79302   0.21152   0.82787   1.000
    O921    O    0.29303   0.21151   0.82787   1.000
    O922    O    0.79299   0.71153   0.82787   1.000
    O923    O    0.29299   0.71153   0.82787   1.000
    O924    O    0.14492   0.10968   0.84185   1.000
    O925    O    0.64491   0.10968   0.84185   1.000
    O926    O    0.14488   0.60969   0.84187   1.000
    O927    O    0.64487   0.60969   0.84187   1.000
    O928    O    0.27150   0.67314   0.84323   1.000
    O929    O    0.77150   0.67314   0.84323   1.000
    O930    O    0.27154   0.17313   0.84322   1.000
    O931    O    0.77154   0.17313   0.84322   1.000
    O932    O    0.44011   0.38895   0.83888   1.000
    O933    O    0.94010   0.38895   0.83893   1.000
    O934    O    0.94010   0.88895   0.83895   1.000
    O935    O    0.44011   0.88895   0.83897   1.000
    O936    O    0.87094   0.39740   0.87891   1.000
    O937    O    0.37095   0.39740   0.87891   1.000
    O938    O    0.87093   0.89740   0.87893   1.000
    O939    O    0.37093   0.89740   0.87893   1.000
    O940    O    0.74123   0.12961   0.85714   1.000
    O941    O    0.71684   0.07944   0.87384   1.000
    O942    O    0.24123   0.12961   0.85714   1.000
    O943    O    0.21684   0.07944   0.87384   1.000
    O944    O    0.74119   0.62963   0.85716   1.000
    O945    O    0.71680   0.57946   0.87386   1.000
    O946    O    0.24119   0.62963   0.85716   1.000
    O947    O    0.21681   0.57946   0.87386   1.000
    O948    O    0.32563   0.14925   0.86893   1.000
    O949    O    0.82562   0.14925   0.86892   1.000
    O950    O    0.32559   0.64926   0.86895   1.000
    O951    O    0.82558   0.64926   0.86895   1.000
    O952    O    0.19469   0.02746   0.87939   1.000
    O953    O    0.19467   0.52748   0.87940   1.000
    O954    O    0.69468   0.02746   0.87939   1.000
    O955    O    0.69466   0.52748   0.87940   1.000
    O956    O    0.29852   0.04650   0.88955   1.000
    O957    O    0.79851   0.04650   0.88955   1.000
    O958    O    0.29849   0.54652   0.88957   1.000
    O959    O    0.79849   0.54652   0.88957   1.000
    O960    O    0.71559   0.06034   0.92945   1.000
    O961    O    0.21560   0.06034   0.92945   1.000
    O962    O    0.71556   0.56035   0.92947   1.000
    O963    O    0.21556   0.56035   0.92947   1.000
    O964    O    0.21245   0.87969   0.91703   1.000
    O965    O    0.21246   0.37971   0.91703   1.000
    O966    O    0.71247   0.37970   0.91703   1.000
    O967    O    0.71244   0.87969   0.91706   1.000
    O968    O    0.30058   0.39692   0.92204   1.000
    O969    O    0.39799   0.41703   0.93151   1.000
    O970    O    0.80058   0.39692   0.92204   1.000
    O971    O    0.89798   0.41704   0.93151   1.000
    O972    O    0.30056   0.89692   0.92207   1.000
    O973    O    0.39796   0.91704   0.93153   1.000
    O974    O    0.80056   0.89692   0.92207   1.000
    O975    O    0.89796   0.91704   0.93153   1.000
    O976    O    0.23223   0.39610   0.96289   1.000
    O977    O    0.73222   0.39610   0.96289   1.000
    O978    O    0.23220   0.89609   0.96292   1.000
    O979    O    0.73219   0.89610   0.96292   1.000
    O980    O    0.98274   0.43543   0.94297   1.000
    O981    O    0.48275   0.43542   0.94297   1.000
    O982    O    0.98272   0.93542   0.94300   1.000
    O983    O    0.48271   0.93543   0.94300   1.000
    O984    O    0.05262   0.04658   0.97232   1.000
    O985    O    0.55261   0.04658   0.97232   1.000
    O986    O    0.05258   0.54660   0.97232   1.000
    O987    O    0.55257   0.54659   0.97234   1.000
    O988    O    0.14090   0.06354   0.97779   1.000
    O989    O    0.64090   0.06354   0.97779   1.000
    O990    O    0.64086   0.56355   0.97781   1.000
    O991    O    0.14087   0.56355   0.97779   1.000
    O992    O    0.39391   0.28141   0.67784   1.000
    O993    O    0.39387   0.78143   0.67786   1.000
    O994    O    0.89390   0.28141   0.67784   1.000
    O995    O    0.89387   0.78143   0.67786   1.000
    O996    O    0.53332   0.15711   0.29271   1.000
    O997    O    0.40830   0.09961   0.26596   1.000
    O998    O    0.53328   0.65712   0.29273   1.000
    O999    O    0.40826   0.59961   0.26598   1.000
    O1000   O    0.03332   0.15711   0.29271   1.000
    O1001   O    0.90830   0.09961   0.26596   1.000
    O1002   O    0.03328   0.65712   0.29273   1.000
    O1003   O    0.90826   0.59961   0.26598   1.000
    O1004   O    0.18653   0.15981   0.30396   1.000
    O1005   O    0.18650   0.65983   0.30399   1.000
    O1006   O    0.68652   0.15981   0.30396   1.000
    O1007   O    0.68649   0.65983   0.30399   1.000
    O1008   O    0.14383   0.96849   0.82216   1.000
    O1009   O    0.14384   0.46850   0.82215   1.000
    O1010   O    0.64382   0.96849   0.82216   1.000
    O1011   O    0.64383   0.46850   0.82215   1.000
    O1012   O    0.15823   0.15050   0.23388   1.000
    O1013   O    0.28321   0.09300   0.20713   1.000
    O1014   O    0.15821   0.65051   0.23390   1.000
    O1015   O    0.28319   0.59300   0.20715   1.000
    O1016   O    0.65822   0.15050   0.23388   1.000
    O1017   O    0.78321   0.09300   0.20713   1.000
    O1018   O    0.65821   0.65051   0.23390   1.000
    O1019   O    0.78319   0.59300   0.20715   1.000
    O1020   O    0.93643   0.09024   0.19582   1.000
    O1021   O    0.93642   0.59024   0.19585   1.000
    O1022   O    0.43643   0.09024   0.19582   1.000
    O1023   O    0.43642   0.59024   0.19585   1.000
    O1024   O    0.10608   0.21859   0.32214   1.000
    O1025   O    0.10605   0.71862   0.32215   1.000
    O1026   O    0.60608   0.21859   0.32214   1.000
    O1027   O    0.60604   0.71862   0.32215   1.000
    O1028   O    0.96668   0.34290   0.70726   1.000
    O1029   O    0.09171   0.40041   0.73400   1.000
    O1030   O    0.96664   0.84291   0.70728   1.000
    O1031   O    0.09167   0.90041   0.73403   1.000
    O1032   O    0.46668   0.34290   0.70726   1.000
    O1033   O    0.59171   0.40041   0.73400   1.000
    O1034   O    0.46664   0.84291   0.70728   1.000
    O1035   O    0.59167   0.90041   0.73403   1.000
    O1036   O    0.31347   0.34019   0.69600   1.000
    O1037   O    0.31344   0.84021   0.69604   1.000
    O1038   O    0.81347   0.34019   0.69600   1.000
    O1039   O    0.81343   0.84021   0.69604   1.000
    O1040   O    0.35614   0.53152   0.17784   1.000
    O1041   O    0.35616   0.03153   0.17783   1.000
    O1042   O    0.85614   0.53152   0.17784   1.000
    O1043   O    0.85615   0.03153   0.17783   1.000
    O1044   O    0.34175   0.34951   0.76609   1.000
    O1045   O    0.21677   0.40702   0.79283   1.000
    O1046   O    0.34173   0.84952   0.76612   1.000
    O1047   O    0.21676   0.90702   0.79286   1.000
    O1048   O    0.84174   0.34951   0.76609   1.000
    O1049   O    0.71677   0.40702   0.79283   1.000
    O1050   O    0.84173   0.84952   0.76612   1.000
    O1051   O    0.71676   0.90702   0.79286   1.000
    O1052   O    0.56355   0.40979   0.80408   1.000
    O1053   O    0.56353   0.90978   0.80417   1.000
    O1054   O    0.06355   0.40979   0.80413   1.000
    O1055   O    0.06353   0.90978   0.80415   1.000
loop_
    _geom_bond_atom_site_label_1
    _geom_bond_atom_site_label_2
    _geom_bond_distance
    _geom_bond_site_symmetry_2
    _ccdc_geom_bond_type
    C244   O480      0.69715      .   S
    C220   O480      0.69715      .   S
    C244   O481      0.69969  1_554   S
    C208   O481      0.69969      .   S
    C244   O482      0.54361  1_554   S
    C72    O482      0.54361      .   S
    C246   O483      0.69715      .   S
    C222   O483      0.69715      .   S
    C246   O484      0.69968  1_554   S
    C210   O484      0.69968      .   S
    C246   O485      0.54362  1_554   S
    C74    O485      0.54362      .   S
    C247   O486      0.69714      .   S
    C223   O486      0.69714      .   S
    C247   O487      0.69967  1_554   S
    C211   O487      0.69967      .   S
    C247   O488      0.54361  1_554   S
    C75    O488      0.54361      .   S
    C245   O489      0.69714      .   S
    C221   O489      0.69714      .   S
    C245   O490      0.69966  1_554   S
    C209   O490      0.69966      .   S
    C245   O491      0.54361  1_554   S
    C73    O491      0.54361      .   S
    C138   O492      0.54362      .   S
    C358   O492      0.54362  1_556   S
    C136   O493      0.54362      .   S
    C356   O493      0.54362  1_556   S
    C139   O494      0.54362      .   S
    C359   O494      0.54362  1_556   S
    C137   O495      0.54362      .   S
    C357   O495      0.54362  1_556   S
    C342   O496      0.69865      .   S
    C322   O496      0.69865      .   S
    C342   O497      0.54395      .   S
    C122   O497      0.54395      .   S
    C342   O498      0.69621  1_554   S
    C366   O498      0.69621      .   S
    C340   O499      0.69866      .   S
    C320   O499      0.69866      .   S
    C340   O500      0.54394      .   S
    C120   O500      0.54394      .   S
    C340   O501      0.69621  1_554   S
    C364   O501      0.69621      .   S
    C341   O502      0.69863      .   S
    C321   O502      0.69863      .   S
    C341   O503      0.54387      .   S
    C121   O503      0.54387      .   S
    C341   O504      0.69622  1_554   S
    C365   O504      0.69622      .   S
    C343   O505      0.69863      .   S
    C323   O505      0.69863      .   S
    C343   O506      0.54387      .   S
    C123   O506      0.54387      .   S
    C343   O507      0.69622  1_554   S
    C367   O507      0.69622      .   S
    C322   O508      0.89112      .   S
    C382   O508      0.89112      .   S
    C322   O509      0.69966      .   S
    C358   O509      0.69966  1_556   S
    C320   O510      0.89112      .   S
    C380   O510      0.89112      .   S
    C320   O511      0.69966      .   S
    C356   O511      0.69966  1_556   S
    C323   O512      0.89102      .   S
    C383   O512      0.89102      .   S
    C323   O513      0.69962      .   S
    C359   O513      0.69962  1_556   S
    C321   O514      0.89102      .   S
    C381   O514      0.89102      .   S
    C321   O515      0.69962      .   S
    C357   O515      0.69962  1_556   S
    C252   O516      0.54541      .   S
    C78    O516      0.54541  1_655   S
    C252   O517      0.70261      .   S
    C224   O517      0.70261      .   S
    C252   O518      0.69189      .   S
    C228   O518      0.69189  1_556   S
    C254   O519      0.54356      .   S
    C76    O519      0.54356      .   S
    C254   O520      0.70003      .   S
    C226   O520      0.70003      .   S
    C254   O521      0.69612      .   S
    C230   O521      0.69612  1_556   S
    C253   O522      0.54368      .   S
    C79    O522      0.54368  1_655   S
    C253   O523      0.70008      .   S
    C225   O523      0.70008      .   S
    C253   O524      0.69643      .   S
    C229   O524      0.69643  1_556   S
    C255   O525      0.54353      .   S
    C77    O525      0.54353      .   S
    C255   O526      0.69995      .   S
    C227   O526      0.69995      .   S
    C255   O527      0.69621      .   S
    C231   O527      0.69621  1_556   S
    C222   O528      0.70097      .   S
    C226   O528      0.70097      .   S
    C222   O529      0.54505      .   S
    C54    O529      0.54505      .   S
    C220   O530      0.70097      .   S
    C224   O530      0.70097      .   S
    C220   O531      0.54505      .   S
    C52    O531      0.54505      .   S
    C223   O532      0.70095      .   S
    C227   O532      0.70095      .   S
    C223   O533      0.54505      .   S
    C55    O533      0.54505      .   S
    C221   O534      0.70096      .   S
    C225   O534      0.70096      .   S
    C221   O535      0.54505      .   S
    C53    O535      0.54505      .   S
    C226   O536      0.75203      .   S
    C206   O536      0.75203      .   S
    C224   O537      0.75203      .   S
    C204   O537      0.75203      .   S
    C227   O538      0.75212      .   S
    C207   O538      0.75212      .   S
    C225   O539      0.75212      .   S
    C205   O539      0.75212      .   S
    C380   O540      0.72860      .   S
    C464   O540      0.72860      .   S
    C380   O541      0.73597      .   S
    C456   O541      0.73597      .   S
    C380   O542      0.88748      .   S
    C324   O542      0.88748      .   S
    C382   O543      0.72860      .   S
    C466   O543      0.72860      .   S
    C382   O544      0.73597      .   S
    C458   O544      0.73597      .   S
    C382   O545      0.88767      .   S
    C326   O545      0.88767      .   S
    C381   O546      0.72860      .   S
    C465   O546      0.72860      .   S
    C381   O547      0.73597      .   S
    C457   O547      0.73597      .   S
    C381   O548      0.88767      .   S
    C325   O548      0.88767      .   S
    C383   O549      0.72860      .   S
    C467   O549      0.72860      .   S
    C383   O550      0.73597      .   S
    C459   O550      0.73597      .   S
    C383   O551      0.88766      .   S
    C327   O551      0.88766      .   S
    C115   O552      0.54408      .   S
    C331   O552      0.54408      .   S
    C114   O553      0.54406      .   S
    C330   O553      0.54406      .   S
    C112   O554      0.54405      .   S
    C328   O554      0.54405      .   S
    C113   O555      0.54404      .   S
    C329   O555      0.54404      .   S
    C331   O556      0.70032      .   S
    C327   O556      0.70032      .   S
    C331   O557      0.69635      .   S
    C355   O557      0.69635      .   S
    C330   O558      0.70038      .   S
    C326   O558      0.70038      .   S
    C330   O559      0.69591      .   S
    C354   O559      0.69591      .   S
    C328   O560      0.70041      .   S
    C324   O560      0.70041      .   S
    C328   O561      0.69591      .   S
    C352   O561      0.69591      .   S
    C329   O562      0.70039      .   S
    C325   O562      0.70039      .   S
    C329   O563      0.69593      .   S
    C353   O563      0.69593      .   S
    C324   O564      0.69929      .   S
    C344   O564      0.69929      .   S
    C326   O565      0.69914      .   S
    C346   O565      0.69914      .   S
    C327   O566      0.69921      .   S
    C347   O566      0.69921      .   S
    C325   O567      0.69921      .   S
    C345   O567      0.69921      .   S
    C206   O568      0.63364      .   S
    C430   O568      0.63364      .   S
    C206   O569      0.64185      .   S
    C414   O569      0.64185      .   S
    C204   O570      0.63364      .   S
    C428   O570      0.63364      .   S
    C204   O571      0.64185      .   S
    C412   O571      0.64185      .   S
    C207   O572      0.63363      .   S
    C431   O572      0.63363      .   S
    C207   O573      0.64182      .   S
    C415   O573      0.64182      .   S
    C205   O574      0.63363      .   S
    C429   O574      0.63363      .   S
    C205   O575      0.64181      .   S
    C413   O575      0.64181      .   S
    C354   O576      0.54479      .   S
    C134   O576      0.54479      .   S
    C354   O577      0.70129      .   S
    C362   O577      0.70129      .   S
    C352   O578      0.54471      .   S
    C132   O578      0.54471      .   S
    C352   O579      0.70129      .   S
    C360   O579      0.70129      .   S
    C355   O580      0.54478      .   S
    C135   O580      0.54478      .   S
    C355   O581      0.70126      .   S
    C363   O581      0.70126      .   S
    C353   O582      0.54478      .   S
    C133   O582      0.54478      .   S
    C353   O583      0.70126      .   S
    C361   O583      0.70126      .   S
    C344   O584      0.54450      .   S
    C124   O584      0.54450      .   S
    C344   O585      0.69775      .   S
    C348   O585      0.69775      .   S
    C346   O586      0.54449      .   S
    C126   O586      0.54449      .   S
    C346   O587      0.69776      .   S
    C350   O587      0.69776      .   S
    C345   O588      0.54450      .   S
    C125   O588      0.54450      .   S
    C345   O589      0.69771      .   S
    C349   O589      0.69771      .   S
    C347   O590      0.54450      .   S
    C127   O590      0.54450      .   S
    C347   O591      0.69771      .   S
    C351   O591      0.69771      .   S
    C362   O592      0.70093      .   S
    C350   O592      0.70093      .   S
    C362   O593      0.75807      .   S
    C314   O593      0.75807      .   S
    C350   O594      0.54398      .   S
    C128   O594      0.54398  1_455   S
    C348   O595      0.70094      .   S
    C360   O595      0.70094      .   S
    C348   O596      0.54391      .   S
    C130   O596      0.54391      .   S
    C360   O597      0.75808      .   S
    C312   O597      0.75808      .   S
    C363   O598      0.70094      .   S
    C351   O598      0.70094      .   S
    C363   O599      0.75805      .   S
    C315   O599      0.75805      .   S
    C351   O600      0.54402      .   S
    C129   O600      0.54402  1_455   S
    C361   O601      0.70093      .   S
    C349   O601      0.70093      .   S
    C361   O602      0.75805      .   S
    C313   O602      0.75805      .   S
    C349   O603      0.54351      .   S
    C131   O603      0.54351      .   S
    C14    O604      1.15842      .   S
    C448   O604      1.15842  1_455   S
    C14    O605      1.16596      .   S
    C446   O605      1.16596      .   S
    C12    O606      1.15836      .   S
    C450   O606      1.15836      .   S
    C12    O607      1.16597      .   S
    C444   O607      1.16597      .   S
    C15    O608      1.15832      .   S
    C449   O608      1.15832  1_455   S
    C15    O609      1.16594      .   S
    C447   O609      1.16594      .   S
    C13    O610      1.15827      .   S
    C451   O610      1.15827      .   S
    C13    O611      1.16599      .   S
    C445   O611      1.16599      .   S
    C313   O612      0.63550      .   S
    C469   O612      0.63550      .   S
    C313   O613      0.63327      .   S
    C473   O613      0.63327      .   S
    C315   O614      0.63550      .   S
    C471   O614      0.63550      .   S
    C315   O615      0.63327      .   S
    C475   O615      0.63327      .   S
    C314   O616      0.63551      .   S
    C470   O616      0.63551      .   S
    C314   O617      0.63326      .   S
    C474   O617      0.63326      .   S
    C312   O618      0.63550      .   S
    C468   O618      0.63550      .   S
    C312   O619      0.63326      .   S
    C472   O619      0.63326      .   S
    C471   O620      1.16522  1_655   S
    C9     O620      1.16522      .   S
    C469   O621      1.16517      .   S
    C11    O621      1.16517      .   S
    C470   O622      1.16512  1_655   S
    C8     O622      1.16512      .   S
    C468   O623      1.16508      .   S
    C10    O623      1.16508      .   S
    C450   O624      0.63320      .   S
    C259   O624      0.63320  1_565   S
    C448   O625      0.63321      .   S
    C257   O625      0.63321  1_565   S
    C451   O626      0.63327      .   S
    C258   O626      0.63327      .   S
    C449   O627      0.63328      .   S
    C256   O627      0.63328      .   S
    C472   O628      1.15822      .   S
    C8     O628      1.15822      .   S
    C475   O629      1.15826      .   S
    C11    O629      1.15826      .   S
    C474   O630      1.15822      .   S
    C10    O630      1.15822      .   S
    C473   O631      1.15827      .   S
    C9     O631      1.15827      .   S
    C444   O632      0.63551      .   S
    C257   O632      0.63551  1_565   S
    C446   O633      0.63552      .   S
    C259   O633      0.63552  1_565   S
    C447   O634      0.63551      .   S
    C258   O634      0.63551      .   S
    C445   O635      0.63550      .   S
    C256   O635      0.63550      .   S
    C259   O636      0.75800      .   S
    C307   O636      0.75800      .   S
    C257   O637      0.75456      .   S
    C305   O637      0.75456      .   S
    C256   O638      0.75807      .   S
    C304   O638      0.75807      .   S
    C258   O639      0.75807      .   S
    C306   O639      0.75807      .   S
    C99    O640      0.54403      .   S
    C295   O640      0.54403      .   S
    C97    O641      0.54391      .   S
    C293   O641      0.54391      .   S
    C98    O642      0.54388      .   S
    C294   O642      0.54388      .   S
    C96    O643      0.54389      .   S
    C292   O643      0.54389      .   S
    C305   O644      0.70161      .   S
    C293   O644      0.70161      .   S
    C305   O645      0.70412      .   S
    C299   O645      0.70412  1_655   S
    C307   O646      0.70092      .   S
    C295   O646      0.70092      .   S
    C307   O647      0.70112      .   S
    C297   O647      0.70112      .   S
    C304   O648      0.70091      .   S
    C292   O648      0.70091      .   S
    C304   O649      0.70136      .   S
    C298   O649      0.70136  1_655   S
    C306   O650      0.70091      .   S
    C294   O650      0.70091      .   S
    C306   O651      0.70130      .   S
    C296   O651      0.70130      .   S
    C293   O652      0.69777      .   S
    C289   O652      0.69777      .   S
    C295   O653      0.69778      .   S
    C291   O653      0.69778      .   S
    C292   O654      0.69776      .   S
    C288   O654      0.69776      .   S
    C294   O655      0.69777      .   S
    C290   O655      0.69777      .   S
    C388   O656      0.64171      .   S
    C148   O656      0.64171      .   S
    C390   O657      0.64171      .   S
    C150   O657      0.64171      .   S
    C391   O658      0.64114      .   S
    C151   O658      0.64114      .   S
    C389   O659      0.64114      .   S
    C149   O659      0.64114      .   S
    C92    O660      0.54448      .   S
    C288   O660      0.54448      .   S
    C95    O661      0.54447      .   S
    C291   O661      0.54447      .   S
    C94    O662      0.54448      .   S
    C290   O662      0.54448      .   S
    C93    O663      0.54448      .   S
    C289   O663      0.54448      .   S
    C101   O664      0.54473      .   S
    C297   O664      0.54473      .   S
    C103   O665      0.54479      .   S
    C299   O665      0.54479      .   S
    C100   O666      0.54479      .   S
    C296   O666      0.54479      .   S
    C102   O667      0.54477      .   S
    C298   O667      0.54477      .   S
    C291   O668      0.69916      .   S
    C271   O668      0.69916      .   S
    C290   O669      0.69912      .   S
    C270   O669      0.69912      .   S
    C289   O670      0.69915      .   S
    C269   O670      0.69915      .   S
    C288   O671      0.69912      .   S
    C268   O671      0.69912      .   S
    C297   O672      0.69618      .   S
    C273   O672      0.69618      .   S
    C299   O673      0.69590      .   S
    C275   O673      0.69590      .   S
    C298   O674      0.69590      .   S
    C274   O674      0.69590      .   S
    C296   O675      0.69589      .   S
    C272   O675      0.69589      .   S
    C406   O676      0.63369      .   S
    C150   O676      0.63369      .   S
    C404   O677      0.63369      .   S
    C148   O677      0.63369      .   S
    C405   O678      0.63347      .   S
    C149   O678      0.63347      .   S
    C407   O679      0.63347      .   S
    C151   O679      0.63347      .   S
    C151   O680      0.75314      .   S
    C171   O680      0.75314      .   S
    C149   O681      0.75314      .   S
    C169   O681      0.75314      .   S
    C150   O682      0.75224      .   S
    C170   O682      0.75224      .   S
    C148   O683      0.75224      .   S
    C168   O683      0.75224      .   S
    C268   O684      0.70045      .   S
    C274   O684      0.70045  1_655   S
    C268   O685      0.88756      .   S
    C376   O685      0.88756      .   S
    C270   O686      0.70040      .   S
    C272   O686      0.70040      .   S
    C270   O687      0.88756      .   S
    C378   O687      0.88756      .   S
    C269   O688      0.70045      .   S
    C275   O688      0.70045  1_655   S
    C269   O689      0.88753      .   S
    C377   O689      0.88753      .   S
    C271   O690      0.70040      .   S
    C273   O690      0.70040      .   S
    C271   O691      0.88753      .   S
    C379   O691      0.88753      .   S
    C275   O692      0.54401      .   S
    C83    O692      0.54401      .   S
    C274   O693      0.54403      .   S
    C82    O693      0.54403      .   S
    C273   O694      0.54402      .   S
    C81    O694      0.54402      .   S
    C272   O695      0.54403      .   S
    C80    O695      0.54403      .   S
    C434   O696      0.73602      .   S
    C378   O696      0.73602      .   S
    C432   O697      0.73602      .   S
    C376   O697      0.73602      .   S
    C435   O698      0.73606      .   S
    C379   O698      0.73606      .   S
    C433   O699      0.73607      .   S
    C377   O699      0.73607      .   S
    C440   O700      0.72864      .   S
    C378   O700      0.72864      .   S
    C442   O701      0.72871      .   S
    C376   O701      0.72871  1_455   S
    C441   O702      0.72864      .   S
    C379   O702      0.72864      .   S
    C443   O703      0.72871      .   S
    C377   O703      0.72871  1_455   S
    C378   O704      0.89122      .   S
    C266   O704      0.89122      .   S
    C376   O705      0.89090      .   S
    C264   O705      0.89090      .   S
    C379   O706      0.89112      .   S
    C267   O706      0.89112      .   S
    C377   O707      0.89112      .   S
    C265   O707      0.89112      .   S
    C20    O708      0.54509      .   S
    C164   O708      0.54509      .   S
    C22    O709      0.54509      .   S
    C166   O709      0.54509      .   S
    C21    O710      0.54516      .   S
    C165   O710      0.54516      .   S
    C23    O711      0.54502      .   S
    C167   O711      0.54502      .   S
    C170   O712      0.70109      .   S
    C164   O712      0.70109  1_455   S
    C170   O713      0.70005      .   S
    C198   O713      0.70005      .   S
    C168   O714      0.70102      .   S
    C166   O714      0.70102      .   S
    C168   O715      0.69979      .   S
    C196   O715      0.69979      .   S
    C171   O716      0.70105      .   S
    C165   O716      0.70105  1_455   S
    C171   O717      0.69999      .   S
    C199   O717      0.69999      .   S
    C169   O718      0.70099      .   S
    C167   O718      0.70099      .   S
    C169   O719      0.70000      .   S
    C197   O719      0.70000      .   S
    C164   O720      0.69716      .   S
    C188   O720      0.69716      .   S
    C166   O721      0.69716      .   S
    C190   O721      0.69716      .   S
    C167   O722      0.69717      .   S
    C191   O722      0.69717      .   S
    C165   O723      0.69717      .   S
    C189   O723      0.69717      .   S
    C44    O724      0.54341      .   S
    C196   O724      0.54341      .   S
    C45    O725      0.54363      .   S
    C197   O725      0.54363      .   S
    C46    O726      0.54360      .   S
    C198   O726      0.54360      .   S
    C47    O727      0.54354      .   S
    C199   O727      0.54354      .   S
    C196   O728      0.69668      .   S
    C172   O728      0.69668      .   S
    C198   O729      0.69625      .   S
    C174   O729      0.69625      .   S
    C197   O730      0.69637      .   S
    C173   O730      0.69637      .   S
    C199   O731      0.69637      .   S
    C175   O731      0.69637      .   S
    C88    O732      0.54393      .   S
    C284   O732      0.54393      .   S
    C90    O733      0.54394      .   S
    C286   O733      0.54394      .   S
    C91    O734      0.54394      .   S
    C287   O734      0.54394      .   S
    C89    O735      0.54348      .   S
    C285   O735      0.54348      .   S
    C264   O736      0.69877      .   S
    C284   O736      0.69877      .   S
    C264   O737      0.69985      .   S
    C302   O737      0.69985  1_655   S
    C266   O738      0.69864      .   S
    C286   O738      0.69864      .   S
    C266   O739      0.69962      .   S
    C300   O739      0.69962      .   S
    C267   O740      0.69867      .   S
    C287   O740      0.69867      .   S
    C267   O741      0.69936      .   S
    C301   O741      0.69936      .   S
    C265   O742      0.69839      .   S
    C285   O742      0.69839      .   S
    C265   O743      0.69972      .   S
    C303   O743      0.69972  1_655   S
    C285   O744      0.69701      .   S
    C309   O744      0.69701      .   S
    C284   O745      0.69626      .   S
    C308   O745      0.69626      .   S
    C286   O746      0.69626      .   S
    C310   O746      0.69626      .   S
    C287   O747      0.69625      .   S
    C311   O747      0.69625      .   S
    C104   O748      0.54373      .   S
    C300   O748      0.54373      .   S
    C106   O749      0.54373      .   S
    C302   O749      0.54373      .   S
    C107   O750      0.54373      .   S
    C303   O750      0.54373      .   S
    C105   O751      0.54351      .   S
    C301   O751      0.54351      .   S
    C190   O752      0.54372      .   S
    C42    O752      0.54372      .   S
    C190   O753      0.69962      .   S
    C152   O753      0.69962      .   S
    C188   O754      0.54368      .   S
    C40    O754      0.54368      .   S
    C188   O755      0.69967  1_455   S
    C154   O755      0.69967      .   S
    C191   O756      0.54372      .   S
    C43    O756      0.54372      .   S
    C191   O757      0.69963      .   S
    C153   O757      0.69963      .   S
    C189   O758      0.54373      .   S
    C41    O758      0.54373      .   S
    C189   O759      0.69967  1_455   S
    C155   O759      0.69967      .   S
    C301   O760      0.69694      .   S
    C277   O760      0.69694      .   S
    C302   O761      0.69717      .   S
    C278   O761      0.69717      .   S
    C300   O762      0.69717      .   S
    C276   O762      0.69717      .   S
    C303   O763      0.69640      .   S
    C279   O763      0.69640      .   S
    C172   O764      0.69867      .   S
    C152   O764      0.69867      .   S
    C172   O765      0.54394      .   S
    C24    O765      0.54394      .   S
    C174   O766      0.69867      .   S
    C154   O766      0.69867      .   S
    C174   O767      0.54395      .   S
    C26    O767      0.54395      .   S
    C175   O768      0.69864      .   S
    C155   O768      0.69864      .   S
    C175   O769      0.54388      .   S
    C27    O769      0.54388      .   S
    C173   O770      0.69864      .   S
    C153   O770      0.69864      .   S
    C173   O771      0.54388      .   S
    C25    O771      0.54388      .   S
    C152   O772      0.89027      .   S
    C368   O772      0.89027      .   S
    C154   O773      0.89027      .   S
    C370   O773      0.89027      .   S
    C153   O774      0.89120      .   S
    C369   O774      0.89120      .   S
    C155   O775      0.89120      .   S
    C371   O775      0.89120      .   S
    C310   O776      0.54359      .   S
    C110   O776      0.54359      .   S
    C310   O777      0.70006      .   S
    C282   O777      0.70006      .   S
    C308   O778      0.54359      .   S
    C108   O778      0.54359      .   S
    C308   O779      0.70005      .   S
    C280   O779      0.70005      .   S
    C311   O780      0.54360      .   S
    C111   O780      0.54360      .   S
    C311   O781      0.70004      .   S
    C283   O781      0.70004      .   S
    C309   O782      0.54359      .   S
    C109   O782      0.54359      .   S
    C309   O783      0.70004      .   S
    C281   O783      0.70004      .   S
    C279   O784      0.70136  1_655   S
    C281   O784      0.70136      .   S
    C279   O785      0.54548      .   S
    C87    O785      0.54548      .   S
    C277   O786      0.70129      .   S
    C283   O786      0.70129      .   S
    C277   O787      0.54548      .   S
    C85    O787      0.54548      .   S
    C276   O788      0.70100      .   S
    C282   O788      0.70100      .   S
    C276   O789      0.54501      .   S
    C84    O789      0.54501      .   S
    C278   O790      0.70107  1_655   S
    C280   O790      0.70107      .   S
    C278   O791      0.54507      .   S
    C86    O791      0.54507      .   S
    C282   O792      0.75216      .   S
    C262   O792      0.75216      .   S
    C280   O793      0.75217      .   S
    C260   O793      0.75217      .   S
    C283   O794      0.75222      .   S
    C263   O794      0.75222      .   S
    C281   O795      0.75222      .   S
    C261   O795      0.75222      .   S
    C370   O796      0.72874  1_655   S
    C392   O796      0.72874      .   S
    C370   O797      0.73627      .   S
    C386   O797      0.73627      .   S
    C370   O798      0.88809      .   S
    C158   O798      0.88809      .   S
    C368   O799      0.72867      .   S
    C394   O799      0.72867      .   S
    C368   O800      0.73627      .   S
    C384   O800      0.73627      .   S
    C368   O801      0.88809      .   S
    C156   O801      0.88809      .   S
    C369   O802      0.72864      .   S
    C395   O802      0.72864      .   S
    C369   O803      0.73601      .   S
    C385   O803      0.73601      .   S
    C369   O804      0.88752      .   S
    C157   O804      0.88752      .   S
    C371   O805      0.72870  1_655   S
    C393   O805      0.72870      .   S
    C371   O806      0.73601      .   S
    C387   O806      0.73601      .   S
    C371   O807      0.88752      .   S
    C159   O807      0.88752      .   S
    C17    O808      0.54404      .   S
    C161   O808      0.54404      .   S
    C19    O809      0.54404      .   S
    C163   O809      0.54404      .   S
    C16    O810      0.54402      .   S
    C160   O810      0.54402      .   S
    C18    O811      0.54403      .   S
    C162   O811      0.54403      .   S
    C163   O812      0.70039      .   S
    C157   O812      0.70039      .   S
    C163   O813      0.69593      .   S
    C187   O813      0.69593      .   S
    C161   O814      0.70044  1_455   S
    C159   O814      0.70044      .   S
    C161   O815      0.69593      .   S
    C185   O815      0.69593      .   S
    C160   O816      0.70045  1_455   S
    C158   O816      0.70045      .   S
    C160   O817      0.69559      .   S
    C184   O817      0.69559      .   S
    C162   O818      0.70041      .   S
    C156   O818      0.70041      .   S
    C162   O819      0.69593      .   S
    C186   O819      0.69593      .   S
    C159   O820      0.69917      .   S
    C179   O820      0.69917      .   S
    C158   O821      0.69916      .   S
    C178   O821      0.69916      .   S
    C157   O822      0.69918      .   S
    C177   O822      0.69918      .   S
    C156   O823      0.69916      .   S
    C176   O823      0.69916      .   S
    C262   O824      0.63369      .   S
    C454   O824      0.63369      .   S
    C262   O825      0.64171      .   S
    C438   O825      0.64171      .   S
    C260   O826      0.63369      .   S
    C452   O826      0.63369      .   S
    C260   O827      0.64171      .   S
    C436   O827      0.64171      .   S
    C263   O828      0.63372      .   S
    C455   O828      0.63372      .   S
    C263   O829      0.64172      .   S
    C439   O829      0.64172      .   S
    C261   O830      0.63372      .   S
    C453   O830      0.63372      .   S
    C261   O831      0.64172      .   S
    C437   O831      0.64172      .   S
    C184   O832      0.54486      .   S
    C36    O832      0.54486      .   S
    C184   O833      0.70163  1_455   S
    C194   O833      0.70163      .   S
    C187   O834      0.54478      .   S
    C39    O834      0.54478      .   S
    C187   O835      0.70131      .   S
    C193   O835      0.70131      .   S
    C185   O836      0.54478      .   S
    C37    O836      0.54478      .   S
    C185   O837      0.70137  1_455   S
    C195   O837      0.70137      .   S
    C186   O838      0.54478      .   S
    C38    O838      0.54478      .   S
    C186   O839      0.70129      .   S
    C192   O839      0.70129      .   S
    C176   O840      0.54448      .   S
    C28    O840      0.54448      .   S
    C176   O841      0.69773      .   S
    C180   O841      0.69773      .   S
    C177   O842      0.54449      .   S
    C29    O842      0.54449      .   S
    C177   O843      0.69772      .   S
    C181   O843      0.69772      .   S
    C179   O844      0.54450      .   S
    C31    O844      0.54450      .   S
    C179   O845      0.69772      .   S
    C183   O845      0.69772      .   S
    C178   O846      0.54449      .   S
    C30    O846      0.54449      .   S
    C178   O847      0.69773      .   S
    C182   O847      0.69773      .   S
    C181   O848      0.70092      .   S
    C193   O848      0.70092      .   S
    C181   O849      0.54388      .   S
    C33    O849      0.54388      .   S
    C183   O850      0.70092      .   S
    C195   O850      0.70092      .   S
    C183   O851      0.54365      .   S
    C35    O851      0.54365      .   S
    C180   O852      0.70092      .   S
    C192   O852      0.70092      .   S
    C180   O853      0.54392      .   S
    C32    O853      0.54392      .   S
    C182   O854      0.70093      .   S
    C194   O854      0.70093      .   S
    C182   O855      0.54392      .   S
    C34    O855      0.54392      .   S
    C193   O856      0.75529      .   S
    C145   O856      0.75529      .   S
    C195   O857      0.75802      .   S
    C147   O857      0.75802      .   S
    C192   O858      0.75805      .   S
    C144   O858      0.75805      .   S
    C194   O859      0.75805      .   S
    C146   O859      0.75805      .   S
    C0     O860      1.15829      .   S
    C424   O860      1.15829      .   S
    C0     O861      1.16514      .   S
    C422   O861      1.16514      .   S
    C2     O862      1.15829      .   S
    C426   O862      1.15829      .   S
    C2     O863      1.16519      .   S
    C420   O863      1.16519  1_455   S
    C1     O864      1.15824      .   S
    C425   O864      1.15824      .   S
    C1     O865      1.16509      .   S
    C423   O865      1.16509      .   S
    C3     O866      1.15824      .   S
    C427   O866      1.15824      .   S
    C3     O867      1.16514      .   S
    C421   O867      1.16514  1_455   S
    C145   O868      0.63625      .   S
    C396   O868      0.63625      .   S
    C145   O869      0.63514      .   S
    C400   O869      0.63514      .   S
    C147   O870      0.63552      .   S
    C398   O870      0.63552      .   S
    C147   O871      0.63333      .   S
    C402   O871      0.63333      .   S
    C144   O872      0.63499  1_545   S
    C397   O872      0.63499      .   S
    C144   O873      0.63291  1_545   S
    C401   O873      0.63291      .   S
    C146   O874      0.63498  1_545   S
    C399   O874      0.63498      .   S
    C146   O875      0.63291  1_545   S
    C403   O875      0.63291      .   S
    C397   O876      1.16750      .   S
    C5     O876      1.16750      .   S
    C399   O877      1.16751      .   S
    C7     O877      1.16751      .   S
    C398   O878      1.16598      .   S
    C6     O878      1.16598      .   S
    C396   O879      1.16598      .   S
    C4     O879      1.16598      .   S
    C427   O880      0.63329      .   S
    C203   O880      0.63329      .   S
    C426   O881      0.63327      .   S
    C202   O881      0.63327      .   S
    C425   O882      0.63329      .   S
    C201   O882      0.63329      .   S
    C424   O883      0.63327      .   S
    C200   O883      0.63327      .   S
    C403   O884      1.15858  1_655   S
    C5     O884      1.15858      .   S
    C401   O885      1.15853      .   S
    C7     O885      1.15853      .   S
    C402   O886      1.15827  1_655   S
    C4     O886      1.15827      .   S
    C400   O887      1.15821      .   S
    C6     O887      1.15821      .   S
    C420   O888      0.63551      .   S
    C200   O888      0.63551      .   S
    C421   O889      0.63551      .   S
    C201   O889      0.63551      .   S
    C422   O890      0.63551      .   S
    C202   O890      0.63551      .   S
    C423   O891      0.63551      .   S
    C203   O891      0.63551      .   S
    C201   O892      0.75806      .   S
    C249   O892      0.75806      .   S
    C200   O893      0.75808      .   S
    C248   O893      0.75808      .   S
    C202   O894      0.75807      .   S
    C250   O894      0.75807      .   S
    C203   O895      0.75806      .   S
    C251   O895      0.75806      .   S
    C67    O896      0.54398  1_655   S
    C237   O896      0.54398      .   S
    C66    O897      0.54402  1_655   S
    C236   O897      0.54402      .   S
    C65    O898      0.54392      .   S
    C239   O898      0.54392      .   S
    C64    O899      0.54395      .   S
    C238   O899      0.54395      .   S
    C248   O900      0.70094      .   S
    C236   O900      0.70094      .   S
    C248   O901      0.70126      .   S
    C240   O901      0.70126      .   S
    C250   O902      0.70095      .   S
    C238   O902      0.70095      .   S
    C250   O903      0.70126      .   S
    C242   O903      0.70126      .   S
    C239   O904      0.70092      .   S
    C251   O904      0.70092      .   S
    C239   O905      0.69777      .   S
    C235   O905      0.69777      .   S
    C238   O906      0.69771      .   S
    C234   O906      0.69771      .   S
    C237   O907      0.70093      .   S
    C249   O907      0.70093      .   S
    C237   O908      0.69776      .   S
    C233   O908      0.69776      .   S
    C236   O909      0.69771      .   S
    C232   O909      0.69771      .   S
    C251   O910      0.70112      .   S
    C243   O910      0.70112      .   S
    C249   O911      0.70112      .   S
    C241   O911      0.70112      .   S
    C462   O912      0.64185      .   S
    C318   O912      0.64185      .   S
    C460   O913      0.64185      .   S
    C316   O913      0.64185      .   S
    C461   O914      0.64180      .   S
    C317   O914      0.64180      .   S
    C463   O915      0.64181      .   S
    C319   O915      0.64181      .   S
    C60    O916      0.54449      .   S
    C232   O916      0.54449      .   S
    C62    O917      0.54448      .   S
    C234   O917      0.54448      .   S
    C63    O918      0.54447      .   S
    C235   O918      0.54447      .   S
    C61    O919      0.54449      .   S
    C233   O919      0.54449      .   S
    C70    O920      0.54479      .   S
    C242   O920      0.54479      .   S
    C68    O921      0.54478      .   S
    C240   O921      0.54478      .   S
    C71    O922      0.54474      .   S
    C243   O922      0.54474      .   S
    C69    O923      0.54474      .   S
    C241   O923      0.54474      .   S
    C232   O924      0.69916      .   S
    C212   O924      0.69916      .   S
    C234   O925      0.69916      .   S
    C214   O925      0.69916      .   S
    C233   O926      0.69919      .   S
    C213   O926      0.69919      .   S
    C235   O927      0.69919      .   S
    C215   O927      0.69919      .   S
    C241   O928      0.69612      .   S
    C217   O928      0.69612      .   S
    C243   O929      0.69612      .   S
    C219   O929      0.69612      .   S
    C240   O930      0.69594      .   S
    C216   O930      0.69594      .   S
    C242   O931      0.69594      .   S
    C218   O931      0.69594      .   S
    C476   O932      0.63389      .   S
    C316   O932      0.63389      .   S
    C478   O933      0.63362      .   S
    C318   O933      0.63362      .   S
    C479   O934      0.63373      .   S
    C319   O934      0.63373      .   S
    C477   O935      0.63361      .   S
    C317   O935      0.63361      .   S
    C318   O936      0.75211      .   S
    C338   O936      0.75211      .   S
    C316   O937      0.75211      .   S
    C336   O937      0.75211      .   S
    C319   O938      0.75203      .   S
    C339   O938      0.75203      .   S
    C317   O939      0.75202      .   S
    C337   O939      0.75202      .   S
    C214   O940      0.70038      .   S
    C218   O940      0.70038      .   S
    C214   O941      0.88765      .   S
    C374   O941      0.88765      .   S
    C212   O942      0.70038      .   S
    C216   O942      0.70038      .   S
    C212   O943      0.88765      .   S
    C372   O943      0.88765      .   S
    C215   O944      0.70038      .   S
    C219   O944      0.70038      .   S
    C215   O945      0.88766      .   S
    C375   O945      0.88766      .   S
    C213   O946      0.70038      .   S
    C217   O946      0.70038      .   S
    C213   O947      0.88766      .   S
    C373   O947      0.88766      .   S
    C216   O948      0.54403      .   S
    C48    O948      0.54403      .   S
    C218   O949      0.54392      .   S
    C50    O949      0.54392      .   S
    C217   O950      0.54400      .   S
    C49    O950      0.54400      .   S
    C219   O951      0.54400      .   S
    C51    O951      0.54400      .   S
    C408   O952      0.73595      .   S
    C372   O952      0.73595      .   S
    C409   O953      0.73598      .   S
    C373   O953      0.73598      .   S
    C410   O954      0.73595      .   S
    C374   O954      0.73595      .   S
    C411   O955      0.73598      .   S
    C375   O955      0.73598      .   S
    C416   O956      0.72860      .   S
    C372   O956      0.72860      .   S
    C418   O957      0.72860      .   S
    C374   O957      0.72860      .   S
    C417   O958      0.72860      .   S
    C373   O958      0.72860      .   S
    C419   O959      0.72860      .   S
    C375   O959      0.72860      .   S
    C374   O960      0.89102      .   S
    C210   O960      0.89102      .   S
    C372   O961      0.89102      .   S
    C208   O961      0.89102      .   S
    C375   O962      0.89101      .   S
    C211   O962      0.89101      .   S
    C373   O963      0.89101      .   S
    C209   O963      0.89101      .   S
    C117   O964      0.54544      .   S
    C333   O964      0.54544      .   S
    C116   O965      0.54505      .   S
    C332   O965      0.54505      .   S
    C118   O966      0.54506      .   S
    C334   O966      0.54506      .   S
    C119   O967      0.54511      .   S
    C335   O967      0.54511      .   S
    C336   O968      0.70095      .   S
    C332   O968      0.70095      .   S
    C336   O969      0.69995      .   S
    C364   O969      0.69995      .   S
    C338   O970      0.70094      .   S
    C334   O970      0.70094      .   S
    C338   O971      0.69996      .   S
    C366   O971      0.69996      .   S
    C337   O972      0.70101      .   S
    C333   O972      0.70101      .   S
    C337   O973      0.70003      .   S
    C365   O973      0.70003      .   S
    C339   O974      0.70101      .   S
    C335   O974      0.70101      .   S
    C339   O975      0.70002      .   S
    C367   O975      0.70002      .   S
    C332   O976      0.69713      .   S
    C356   O976      0.69713      .   S
    C334   O977      0.69714      .   S
    C358   O977      0.69714      .   S
    C333   O978      0.69715      .   S
    C357   O978      0.69715      .   S
    C335   O979      0.69715      .   S
    C359   O979      0.69715      .   S
    C140   O980      0.54359  1_455   S
    C366   O980      0.54359      .   S
    C142   O981      0.54353      .   S
    C364   O981      0.54353      .   S
    C141   O982      0.54363  1_455   S
    C367   O982      0.54363      .   S
    C143   O983      0.54357      .   S
    C365   O983      0.54357      .   S
    C56    O984      0.54394      .   S
    C228   O984      0.54394      .   S
    C58    O985      0.54394      .   S
    C230   O985      0.54394      .   S
    C57    O986      0.54367      .   S
    C229   O986      0.54367      .   S
    C59    O987      0.54394      .   S
    C231   O987      0.54394      .   S
    C208   O988      0.69867      .   S
    C228   O988      0.69867      .   S
    C210   O989      0.69868      .   S
    C230   O989      0.69868      .   S
    C211   O990      0.69866      .   S
    C231   O990      0.69866      .   S
    C209   O991      0.69850      .   S
    C229   O991      0.69850      .   S
    C384   O992      1.25204      .   S
    C0     O992      1.25204      .   S
    C385   O993      1.25196      .   S
    C1     O993      1.25196      .   S
    C386   O994      1.25204      .   S
    C2     O994      1.25204      .   S
    C387   O995      1.25196      .   S
    C3     O995      1.25196      .   S
    C388   O996      1.21986      .   S
    C10    O996      1.21986      .   S
    C388   O997      1.23816      .   S
    C12    O997      1.23816      .   S
    C389   O998      1.21990      .   S
    C11    O998      1.21990      .   S
    C389   O999      1.23811      .   S
    C13    O999      1.23811      .   S
    C390   O1000     1.21991  1_655   S
    C8     O1000     1.21991      .   S
    C390   O1001     1.23816      .   S
    C14    O1001     1.23816      .   S
    C391   O1002     1.21995  1_655   S
    C9     O1002     1.21995      .   S
    C391   O1003     1.23812      .   S
    C15    O1003     1.23812      .   S
    C404   O1004     1.19055      .   S
    C8     O1004     1.19055      .   S
    C405   O1005     1.19051      .   S
    C9     O1005     1.19051      .   S
    C406   O1006     1.19055      .   S
    C10    O1006     1.19055      .   S
    C407   O1007     1.19051      .   S
    C11    O1007     1.19051      .   S
    C408   O1008     1.25067  1_545   S
    C5     O1008     1.25067      .   S
    C409   O1009     1.25092      .   S
    C4     O1009     1.25092      .   S
    C410   O1010     1.25066  1_545   S
    C7     O1010     1.25066      .   S
    C411   O1011     1.25092      .   S
    C6     O1011     1.25092      .   S
    C412   O1012     1.23800      .   S
    C8     O1012     1.23800      .   S
    C412   O1013     1.22029      .   S
    C12    O1013     1.22029      .   S
    C413   O1014     1.23814      .   S
    C9     O1014     1.23814      .   S
    C413   O1015     1.22025      .   S
    C13    O1015     1.22025      .   S
    C414   O1016     1.23799      .   S
    C10    O1016     1.23799      .   S
    C414   O1017     1.22028      .   S
    C14    O1017     1.22028      .   S
    C415   O1018     1.23814      .   S
    C11    O1018     1.23814      .   S
    C415   O1019     1.22025      .   S
    C15    O1019     1.22025      .   S
    C428   O1020     1.19112  1_455   S
    C14    O1020     1.19112      .   S
    C429   O1021     1.19116  1_455   S
    C15    O1021     1.19116      .   S
    C430   O1022     1.19108      .   S
    C12    O1022     1.19108      .   S
    C431   O1023     1.19111      .   S
    C13    O1023     1.19111      .   S
    C432   O1024     1.25201      .   S
    C8     O1024     1.25201      .   S
    C433   O1025     1.25209      .   S
    C9     O1025     1.25209      .   S
    C434   O1026     1.25202      .   S
    C10    O1026     1.25202      .   S
    C435   O1027     1.25210      .   S
    C11    O1027     1.25210      .   S
    C436   O1028     1.21997  1_455   S
    C2     O1028     1.21997      .   S
    C436   O1029     1.23817      .   S
    C4     O1029     1.23817      .   S
    C437   O1030     1.21988  1_455   S
    C3     O1030     1.21988      .   S
    C437   O1031     1.23817      .   S
    C5     O1031     1.23817      .   S
    C438   O1032     1.21992      .   S
    C0     O1032     1.21992      .   S
    C438   O1033     1.23816      .   S
    C6     O1033     1.23816      .   S
    C439   O1034     1.21984      .   S
    C1     O1034     1.21984      .   S
    C439   O1035     1.23817      .   S
    C7     O1035     1.23817      .   S
    C452   O1036     1.19060      .   S
    C0     O1036     1.19060      .   S
    C453   O1037     1.19051      .   S
    C1     O1037     1.19051      .   S
    C454   O1038     1.19060      .   S
    C2     O1038     1.19060      .   S
    C455   O1039     1.19051      .   S
    C3     O1039     1.19051      .   S
    C456   O1040     1.25087      .   S
    C13    O1040     1.25087      .   S
    C457   O1041     1.25060  1_565   S
    C12    O1041     1.25060      .   S
    C458   O1042     1.25086      .   S
    C15    O1042     1.25086      .   S
    C459   O1043     1.25060  1_565   S
    C14    O1043     1.25060      .   S
    C460   O1044     1.23808      .   S
    C0     O1044     1.23808      .   S
    C460   O1045     1.22014      .   S
    C4     O1045     1.22014      .   S
    C461   O1046     1.23799      .   S
    C1     O1046     1.23799      .   S
    C461   O1047     1.22025      .   S
    C5     O1047     1.22025      .   S
    C462   O1048     1.23807      .   S
    C2     O1048     1.23807      .   S
    C462   O1049     1.22015      .   S
    C6     O1049     1.22015      .   S
    C463   O1050     1.23799      .   S
    C3     O1050     1.23799      .   S
    C463   O1051     1.22025      .   S
    C7     O1051     1.22025      .   S
    C476   O1052     1.19052      .   S
    C6     O1052     1.19052      .   S
    C477   O1053     1.19114      .   S
    C7     O1053     1.19114      .   S
    C478   O1054     1.19117  1_655   S
    C4     O1054     1.19117      .   S
    C479   O1055     1.19091  1_655   S
    C5     O1055     1.19091      .   S
