# CIF file generated by openbabel 2.4.90, see http://openbabel.sf.net
data_I
_chemical_name_common ''
_cell_length_a 9.0155
_cell_length_b 9.0175
_cell_length_c 19.522
_cell_angle_alpha 90.006
_cell_angle_beta 90.004
_cell_angle_gamma 111.285
_space_group_name_H-M_alt 'P 1'
_space_group_name_Hall 'P 1'
loop_
    _symmetry_equiv_pos_as_xyz
    x,y,z
loop_
    _atom_site_label
    _atom_site_type_symbol
    _atom_site_fract_x
    _atom_site_fract_y
    _atom_site_fract_z
    _atom_site_occupancy
    P0      P    0.33101   0.37152   0.42028   1.000
    P1      P    0.80549   0.51354   0.31001   1.000
    P2      P    0.20117   0.49285   0.15910   1.000
    P3      P    0.16896   0.12870   0.92028   1.000
    P4      P    0.69444   0.98668   0.81002   1.000
    P5      P    0.29873   0.00735   0.65911   1.000
    P6      P    0.66893   0.62866   0.58249   1.000
    P7      P    0.19443   0.48664   0.69275   1.000
    P8      P    0.79882   0.50738   0.84365   1.000
    P9      P    0.83096   0.87151   0.08247   1.000
    P10     P    0.30546   0.01353   0.19274   1.000
    P11     P    0.70127   0.99285   0.34365   1.000
    O12     O    0.07000   0.27021   0.24163   1.000
    O13     O    0.17059   0.34485   0.38615   1.000
    O14     O    0.21620   0.41815   0.23291   1.000
    O15     O    0.94483   0.46200   0.33070   1.000
    O16     O    0.36376   0.62549   0.15239   1.000
    O17     O    0.41075   0.26191   0.38870   1.000
    O18     O    0.85581   0.63176   0.25000   1.000
    O19     O    0.06340   0.55373   0.15834   1.000
    O20     O    0.66044   0.36766   0.28702   1.000
    O21     O    0.17444   0.36811   0.10310   1.000
    O22     O    0.43991   0.54781   0.41102   1.000
    O23     O    0.30082   0.33044   0.49653   1.000
    O24     O    0.76347   0.59470   0.37220   1.000
    O25     O    0.42997   0.22998   0.74165   1.000
    O26     O    0.32940   0.15541   0.88617   1.000
    O27     O    0.28370   0.08211   0.73292   1.000
    O28     O    0.55502   0.03808   0.83072   1.000
    O29     O    0.13614   0.87468   0.65239   1.000
    O30     O    0.08918   0.23825   0.88869   1.000
    O31     O    0.64416   0.86843   0.75000   1.000
    O32     O    0.43651   0.94648   0.65836   1.000
    O33     O    0.83938   0.13266   0.78704   1.000
    O34     O    0.32545   0.13206   0.60311   1.000
    O35     O    0.06010   0.95238   0.91102   1.000
    O36     O    0.19910   0.16980   0.00000   1.000
    O37     O    0.73659   0.90557   0.87220   1.000
    O38     O    0.93000   0.73000   0.76113   1.000
    O39     O    0.82936   0.65536   0.61662   1.000
    O40     O    0.78376   0.58209   0.76984   1.000
    O41     O    0.05506   0.53811   0.67205   1.000
    O42     O    0.63628   0.37466   0.85036   1.000
    O43     O    0.58914   0.73822   0.61408   1.000
    O44     O    0.14413   0.36840   0.75276   1.000
    O45     O    0.93668   0.44662   0.84441   1.000
    O46     O    0.33943   0.63258   0.71575   1.000
    O47     O    0.82548   0.63210   0.89965   1.000
    O48     O    0.56008   0.45235   0.59174   1.000
    O49     O    0.69912   0.66977   0.50624   1.000
    O50     O    0.23653   0.40551   0.63057   1.000
    O51     O    0.57003   0.77021   0.26110   1.000
    O52     O    0.67052   0.84485   0.11658   1.000
    O53     O    0.71627   0.91810   0.26984   1.000
    O54     O    0.44482   0.96202   0.17205   1.000
    O55     O    0.86388   0.12546   0.35038   1.000
    O56     O    0.91065   0.76188   0.11407   1.000
    O57     O    0.35577   0.13175   0.25277   1.000
    O58     O    0.56353   0.05380   0.34440   1.000
    O59     O    0.16044   0.86763   0.21571   1.000
    O60     O    0.67449   0.86812   0.39965   1.000
    O61     O    0.93987   0.04781   0.09175   1.000
    O62     O    0.80082   0.83044   0.00623   1.000
    O63     O    0.26340   0.09467   0.13056   1.000
loop_
    _geom_bond_atom_site_label_1
    _geom_bond_atom_site_label_2
    _geom_bond_distance
    _geom_bond_site_symmetry_2
    _ccdc_geom_bond_type
    O36    P3        1.59999  1_554   S
    O62    P9        1.53403      .   S
    P9     O61       1.54626  1_565   S
    P9     O56       1.54585      .   S
    P9     O52       1.53000      .   S
    O21    P2        1.52363      .   S
    O63    P10       1.53440      .   S
    O16    P2        1.52435      .   S
    O19    P2        1.52952      .   S
    P2     O14       1.61701      .   S
    O54    P10       1.54303  1_565   S
    P10    O59       1.54689  1_545   S
    P10    O57       1.53759      .   S
    O14    O12       1.50646      .   S
    O18    P1        1.53755      .   S
    O51    O53       1.50644      .   S
    O53    P11       1.61703      .   S
    O20    P1        1.54691      .   S
    P1     O15       1.54304      .   S
    P1     O24       1.53437      .   S
    P11    O58       1.52959  1_565   S
    P11    O55       1.52439  1_565   S
    P11    O60       1.52364      .   S
    O13    P0        1.52998      .   S
    O17    P0        1.54586      .   S
    O22    P0        1.54621      .   S
    P0     O23       1.53435      .   S
    O49    P6        1.53435      .   S
    P6     O48       1.54620      .   S
    P6     O43       1.54585      .   S
    P6     O39       1.52997      .   S
    O34    P5        1.52365      .   S
    O50    P7        1.53438      .   S
    O29    P5        1.52438  1_565   S
    O32    P5        1.52959  1_565   S
    P5     O27       1.61704      .   S
    O41    P7        1.54308      .   S
    P7     O46       1.54694      .   S
    P7     O44       1.53757      .   S
    O27    O25       1.50646      .   S
    O31    P4        1.53761      .   S
    O38    O40       1.50649      .   S
    O40    P8        1.61702      .   S
    O33    P4        1.54693  1_545   S
    P4     O28       1.54307  1_565   S
    P4     O37       1.53439      .   S
    P8     O45       1.52953      .   S
    P8     O42       1.52436      .   S
    P8     O47       1.52364      .   S
    O26    P3        1.53001      .   S
    O30    P3        1.54584      .   S
    O35    P3        1.54626  1_565   S
