# CIF file generated by openbabel 2.4.90, see http://openbabel.sf.net
data_I
_chemical_name_common ''
_cell_length_a 9.0155
_cell_length_b 9.0175
_cell_length_c 19.522
_cell_angle_alpha 90.006
_cell_angle_beta 90.004
_cell_angle_gamma 111.285
_space_group_name_H-M_alt 'P 1'
_space_group_name_Hall 'P 1'
loop_
    _symmetry_equiv_pos_as_xyz
    x,y,z
loop_
    _atom_site_label
    _atom_site_type_symbol
    _atom_site_fract_x
    _atom_site_fract_y
    _atom_site_fract_z
    _atom_site_occupancy
    Zr0     Zr   0.01741   0.30562   0.32651   1.000
    Zr1     Zr   0.14192   0.16863   0.08235   1.000
    Zr2     Zr   0.49665   0.20644   0.31759   1.000
    Zr3     Zr   0.48256   0.19457   0.82653   1.000
    Zr4     Zr   0.35799   0.33154   0.58236   1.000
    Zr5     Zr   0.00333   0.29380   0.81759   1.000
    Zr6     Zr   0.98256   0.69456   0.67625   1.000
    Zr7     Zr   0.85804   0.83159   0.92040   1.000
    Zr8     Zr   0.50328   0.79375   0.68518   1.000
    Zr9     Zr   0.51739   0.80562   0.17623   1.000
    Zr10    Zr   0.64198   0.66865   0.42040   1.000
    Zr11    Zr   0.99657   0.70642   0.18516   1.000
    N12     N    0.66933   0.62887   0.58223   1.000
    O13     O    0.66994   0.64904   0.52278   1.000
    O14     O    0.56418   0.51041   0.58464   1.000
    O15     O    0.78764   0.65191   0.61433   1.000
    O16     O    0.60777   0.69743   0.61593   1.000
    N17     N    0.83057   0.87130   0.08222   1.000
    O18     O    0.89209   0.80272   0.11591   1.000
    O19     O    0.83000   0.85115   0.02277   1.000
    O20     O    0.93573   0.98976   0.08463   1.000
    O21     O    0.71226   0.84827   0.11431   1.000
    N22     N    0.16935   0.12891   0.92123   1.000
    O23     O    0.10780   0.19747   0.88719   1.000
    O24     O    0.28767   0.15195   0.88879   1.000
    O25     O    0.16993   0.14906   0.98120   1.000
    O26     O    0.06421   0.01044   0.91847   1.000
    N27     N    0.18149   0.45475   0.17458   1.000
    O28     O    0.31103   0.58515   0.16944   1.000
    O29     O    0.11260   0.37133   0.22933   1.000
    O30     O    0.16984   0.36156   0.13365   1.000
    O31     O    0.10574   0.54241   0.17316   1.000
    N32     N    0.68158   0.95476   0.32817   1.000
    O33     O    0.81111   0.08515   0.33331   1.000
    O34     O    0.66991   0.86157   0.36910   1.000
    O35     O    0.61264   0.87134   0.27342   1.000
    O36     O    0.60584   0.04244   0.32958   1.000
    N37     N    0.69392   0.98628   0.81000   1.000
    O38     O    0.63382   0.90869   0.76379   1.000
    O39     O    0.80764   0.09976   0.80616   1.000
    O40     O    0.74562   0.92743   0.85315   1.000
    O41     O    0.60635   0.05130   0.81931   1.000
    N42     N    0.33062   0.37131   0.42053   1.000
    O43     O    0.21231   0.34827   0.38843   1.000
    O44     O    0.33001   0.35115   0.47999   1.000
    O45     O    0.39216   0.30274   0.38684   1.000
    O46     O    0.43578   0.48977   0.41812   1.000
    N47     N    0.80601   0.51393   0.30998   1.000
    O48     O    0.69228   0.40049   0.30614   1.000
    O49     O    0.86610   0.59151   0.26378   1.000
    O50     O    0.75436   0.57280   0.35314   1.000
    O51     O    0.89356   0.44887   0.31929   1.000
    N52     N    0.19392   0.48625   0.69278   1.000
    O53     O    0.24559   0.42738   0.64962   1.000
    O54     O    0.10636   0.55129   0.68346   1.000
    O55     O    0.13382   0.40867   0.73898   1.000
    O56     O    0.30763   0.59971   0.69662   1.000
    N57     N    0.31842   0.04544   0.67459   1.000
    O58     O    0.38734   0.12886   0.72934   1.000
    O59     O    0.18888   0.91503   0.66945   1.000
    O60     O    0.39416   0.95778   0.67318   1.000
    O61     O    0.33007   0.13862   0.63366   1.000
    N62     N    0.30598   0.01392   0.19277   1.000
    O63     O    0.25432   0.07279   0.14961   1.000
    O64     O    0.36609   0.09151   0.23897   1.000
    O65     O    0.39354   0.94887   0.18345   1.000
    O66     O    0.19224   0.90047   0.19660   1.000
    N67     N    0.81850   0.54548   0.82817   1.000
    O68     O    0.83013   0.63866   0.86910   1.000
    O69     O    0.88739   0.62888   0.77343   1.000
    O70     O    0.89425   0.45784   0.82959   1.000
    O71     O    0.68896   0.41505   0.83331   1.000
loop_
    _geom_bond_atom_site_label_1
    _geom_bond_atom_site_label_2
    _geom_bond_distance
    _geom_bond_site_symmetry_2
    _ccdc_geom_bond_type
    N12    O13       1.17459      .   S
    Zr10   O13       2.03014      .   S
    N12    O14       1.14314      .   S
    Zr4    O14       1.97032      .   S
    N12    O15       1.18855      .   S
    Zr6    O15       2.05080      .   S
    N12    O16       1.17133      .   S
    Zr8    O16       2.01579      .   S
    N17    O18       1.17125      .   S
    Zr11   O18       2.01563      .   S
    N17    O19       1.17445      .   S
    Zr7    O19       2.03000  1_556   S
    N17    O20       1.14320      .   S
    Zr1    O20       1.97035  1_445   S
    N17    O21       1.18850      .   S
    Zr9    O21       2.05072      .   S
    N22    O23       1.17514      .   S
    Zr5    O23       2.02031      .   S
    N22    O24       1.19216      .   S
    Zr3    O24       2.05483      .   S
    N22    O25       1.18452      .   S
    Zr1    O25       2.00662  1_554   S
    N22    O26       1.14339      .   S
    Zr7    O26       1.97004  1_665   S
    N27    O28       1.32654      .   S
    Zr9    O28       2.17849      .   S
    N27    O29       1.32474      .   S
    Zr0    O29       2.07810      .   S
    N27    O30       1.13636      .   S
    Zr1    O30       1.94288      .   S
    N27    O31       1.21820      .   S
    Zr11   O31       2.06575  1_655   S
    N32    O33       1.32642  1_565   S
    Zr0    O33       2.17824  1_455   S
    N32    O34       1.13645      .   S
    Zr10   O34       1.94304      .   S
    N32    O35       1.32473      .   S
    Zr9    O35       2.07809      .   S
    N32    O36       1.21828  1_565   S
    Zr2    O36       2.06588      .   S
    N37    O38       1.14947      .   S
    Zr8    O38       1.98200      .   S
    N37    O39       1.15851  1_565   S
    Zr5    O39       1.99572  1_455   S
    N37    O40       1.17819      .   S
    Zr7    O40       2.03325      .   S
    N37    O41       1.15589  1_565   S
    Zr3    O41       1.99529      .   S
    N42    O43       1.18852      .   S
    Zr0    O43       2.05075      .   S
    N42    O44       1.17458      .   S
    Zr4    O44       2.03011      .   S
    N42    O45       1.17126      .   S
    Zr2    O45       2.01568      .   S
    N42    O46       1.14322      .   S
    Zr10   O46       1.97044      .   S
    N47    O48       1.15839      .   S
    Zr2    O48       1.99550      .   S
    N47    O49       1.14957      .   S
    Zr11   O49       1.98213      .   S
    N47    O50       1.17809      .   S
    Zr10   O50       2.03310      .   S
    N47    O51       1.15609      .   S
    Zr0    O51       1.99557  1_455   S
    N52    O53       1.17815      .   S
    Zr4    O53       2.03319      .   S
    N52    O54       1.15598      .   S
    Zr6    O54       1.99538  1_655   S
    N52    O55       1.14949      .   S
    Zr5    O55       1.98199      .   S
    N52    O56       1.15842      .   S
    Zr8    O56       1.99556      .   S
    N57    O58       1.32468      .   S
    Zr3    O58       2.07804      .   S
    N57    O59       1.32652  1_545   S
    Zr6    O59       2.17839  1_655   S
    N57    O60       1.21811  1_545   S
    Zr8    O60       2.06567      .   S
    N57    O61       1.13643      .   S
    Zr4    O61       1.94298      .   S
    N62    O63       1.17812      .   S
    Zr1    O63       2.03314      .   S
    N62    O64       1.14953      .   S
    Zr2    O64       1.98210      .   S
    N62    O65       1.15607  1_545   S
    Zr9    O65       1.99560      .   S
    N62    O66       1.15846  1_545   S
    Zr11   O66       1.99563  1_655   S
    N67    O68       1.13637      .   S
    Zr7    O68       1.94287      .   S
    N67    O69       1.32462      .   S
    Zr6    O69       2.07796      .   S
    N67    O70       1.21795      .   S
    Zr5    O70       2.06544  1_455   S
    N67    O71       1.32670      .   S
    Zr3    O71       2.17873      .   S
