# CIF file generated by openbabel 2.4.90, see http://openbabel.sf.net
data_I
_chemical_name_common ''
_cell_length_a 17.202
_cell_length_b 18.548
_cell_length_c 18.556
_cell_angle_alpha 77.633
_cell_angle_beta 62.433
_cell_angle_gamma 62.424
_space_group_name_H-M_alt 'P 1'
_space_group_name_Hall 'P 1'
loop_
    _symmetry_equiv_pos_as_xyz
    x,y,z
loop_
    _atom_site_label
    _atom_site_type_symbol
    _atom_site_fract_x
    _atom_site_fract_y
    _atom_site_fract_z
    _atom_site_occupancy
    C0      C    0.28121   0.26119   0.26117   1.000
    C1      C    0.28121   0.26120   0.76116   1.000
    C2      C    0.28122   0.76119   0.26117   1.000
    C3      C    0.28122   0.76119   0.76110   1.000
    C4      C    0.78122   0.26119   0.26118   1.000
    C5      C    0.78122   0.26120   0.76116   1.000
    C6      C    0.78123   0.76119   0.26117   1.000
    C7      C    0.78123   0.76119   0.76116   1.000
    C8      C    0.05332   0.48909   0.48903   1.000
    C9      C    0.05332   0.48909   0.98902   1.000
    C10     C    0.05332   0.98908   0.48900   1.000
    C11     C    0.05332   0.98909   0.98902   1.000
    C12     C    0.55333   0.48909   0.48903   1.000
    C13     C    0.55333   0.48909   0.98902   1.000
    C14     C    0.55333   0.98908   0.48904   1.000
    C15     C    0.55333   0.98909   0.98902   1.000
    C16     C    0.04231   0.23904   0.01110   1.000
    C17     C    0.04232   0.23905   0.51110   1.000
    C18     C    0.04232   0.73903   0.01111   1.000
    C19     C    0.04232   0.73903   0.51100   1.000
    C20     C    0.54233   0.23905   0.01111   1.000
    C21     C    0.54233   0.23904   0.51110   1.000
    C22     C    0.54233   0.73903   0.01111   1.000
    C23     C    0.54233   0.73904   0.51109   1.000
    C24     C    0.04233   0.01114   0.23898   1.000
    C25     C    0.04233   0.01115   0.73897   1.000
    C26     C    0.04233   0.51113   0.23898   1.000
    C27     C    0.04233   0.51114   0.73897   1.000
    C28     C    0.54234   0.01114   0.23898   1.000
    C29     C    0.54234   0.01114   0.73897   1.000
    C30     C    0.54234   0.51113   0.23898   1.000
    C31     C    0.54234   0.51114   0.73890   1.000
    C32     C    0.21870   0.23900   0.23896   1.000
    C33     C    0.21870   0.23900   0.73895   1.000
    C34     C    0.21870   0.73900   0.23896   1.000
    C35     C    0.21870   0.73900   0.73894   1.000
    C36     C    0.71871   0.23900   0.23896   1.000
    C37     C    0.71871   0.23900   0.73895   1.000
    C38     C    0.71871   0.73900   0.23895   1.000
    C39     C    0.71871   0.73900   0.73894   1.000
    C40     C    0.44657   0.01112   0.01109   1.000
    C41     C    0.44657   0.01112   0.51108   1.000
    C42     C    0.44657   0.51111   0.01109   1.000
    C43     C    0.44657   0.51112   0.51108   1.000
    C44     C    0.94659   0.01112   0.01109   1.000
    C45     C    0.94659   0.01112   0.51108   1.000
    C46     C    0.94658   0.51111   0.01109   1.000
    C47     C    0.94659   0.51112   0.51108   1.000
    C48     C    0.45760   0.26116   0.48900   1.000
    C49     C    0.45760   0.26116   0.98899   1.000
    C50     C    0.45761   0.76115   0.48900   1.000
    C51     C    0.45761   0.76115   0.98890   1.000
    C52     C    0.95761   0.26116   0.48900   1.000
    C53     C    0.95761   0.26116   0.98899   1.000
    C54     C    0.95762   0.76114   0.48900   1.000
    C55     C    0.95762   0.76115   0.98898   1.000
    C56     C    0.45760   0.48904   0.26112   1.000
    C57     C    0.45760   0.48905   0.76111   1.000
    C58     C    0.45760   0.98904   0.26112   1.000
    C59     C    0.45760   0.98904   0.76111   1.000
    C60     C    0.95761   0.48905   0.26112   1.000
    C61     C    0.95761   0.48905   0.76111   1.000
    C62     C    0.95761   0.98904   0.26112   1.000
    C63     C    0.95761   0.98904   0.76111   1.000
    O64     O    0.23583   0.31533   0.31533   1.000
    O65     O    0.23583   0.31533   0.81530   1.000
    O66     O    0.23584   0.81533   0.31532   1.000
    O67     O    0.23584   0.81533   0.81531   1.000
    O68     O    0.94894   0.81517   0.93474   1.000
    O69     O    0.12791   0.27620   0.27617   1.000
    O70     O    0.12791   0.27620   0.77615   1.000
    O71     O    0.12791   0.77620   0.27616   1.000
    O72     O    0.73584   0.31533   0.31533   1.000
    O73     O    0.73584   0.31534   0.81531   1.000
    O74     O    0.73585   0.81533   0.31532   1.000
    O75     O    0.73585   0.81533   0.81531   1.000
    O76     O    0.09597   0.47382   0.27617   1.000
    O77     O    0.09598   0.47382   0.77616   1.000
    O78     O    0.09597   0.97382   0.27618   1.000
    O79     O    0.09597   0.97382   0.77616   1.000
    O80     O    0.59598   0.47381   0.27617   1.000
    O81     O    0.59599   0.47382   0.77610   1.000
    O82     O    0.59598   0.97382   0.27617   1.000
    O83     O    0.59598   0.97382   0.77616   1.000
    O84     O    0.11624   0.43498   0.43488   1.000
    O85     O    0.11624   0.43498   0.93487   1.000
    O86     O    0.11624   0.93497   0.43489   1.000
    O87     O    0.11624   0.93498   0.93487   1.000
    O88     O    0.61625   0.43498   0.43489   1.000
    O89     O    0.61625   0.43499   0.93487   1.000
    O90     O    0.61625   0.93497   0.43489   1.000
    O91     O    0.61625   0.93498   0.93487   1.000
    O92     O    0.09596   0.27624   0.47377   1.000
    O93     O    0.09596   0.27624   0.97376   1.000
    O94     O    0.09597   0.77622   0.47376   1.000
    O95     O    0.09597   0.77623   0.97375   1.000
    O96     O    0.59597   0.27623   0.47377   1.000
    O97     O    0.59597   0.27624   0.97375   1.000
    O98     O    0.59598   0.77622   0.47376   1.000
    O99     O    0.59598   0.77623   0.97375   1.000
    O100    O    0.05099   0.18502   0.06535   1.000
    O101    O    0.05100   0.18502   0.56530   1.000
    O102    O    0.05100   0.68501   0.06535   1.000
    O103    O    0.05100   0.68501   0.56533   1.000
    O104    O    0.55100   0.18502   0.06535   1.000
    O105    O    0.55101   0.18502   0.56534   1.000
    O106    O    0.55101   0.68501   0.06535   1.000
    O107    O    0.55101   0.68501   0.56533   1.000
    O108    O    0.37200   0.22399   0.22397   1.000
    O109    O    0.37200   0.22399   0.72390   1.000
    O110    O    0.37201   0.72399   0.22396   1.000
    O111    O    0.37201   0.72399   0.72395   1.000
    O112    O    0.87201   0.22399   0.22397   1.000
    O113    O    0.87201   0.22399   0.72395   1.000
    O114    O    0.87202   0.72399   0.22396   1.000
    O115    O    0.87202   0.72399   0.72395   1.000
    O116    O    0.05104   0.06535   0.18492   1.000
    O117    O    0.05104   0.06535   0.68491   1.000
    O118    O    0.05104   0.56534   0.18492   1.000
    O119    O    0.05104   0.56534   0.68490   1.000
    O120    O    0.55105   0.06535   0.18492   1.000
    O121    O    0.55105   0.06535   0.68491   1.000
    O122    O    0.55105   0.56534   0.18492   1.000
    O123    O    0.55105   0.56534   0.68490   1.000
    O124    O    0.06959   0.02639   0.02637   1.000
    O125    O    0.06959   0.02639   0.52635   1.000
    O126    O    0.06959   0.52638   0.02630   1.000
    O127    O    0.06959   0.52638   0.52635   1.000
    O128    O    0.56960   0.02639   0.02637   1.000
    O129    O    0.56960   0.02639   0.52630   1.000
    O130    O    0.56960   0.52638   0.02637   1.000
    O131    O    0.56960   0.52639   0.52635   1.000
    O132    O    0.26408   0.18487   0.18480   1.000
    O133    O    0.26408   0.18486   0.68479   1.000
    O134    O    0.26409   0.68486   0.18480   1.000
    O135    O    0.26409   0.68486   0.68479   1.000
    O136    O    0.76409   0.18486   0.18481   1.000
    O137    O    0.76409   0.18487   0.68479   1.000
    O138    O    0.76410   0.68486   0.18480   1.000
    O139    O    0.76410   0.68486   0.68479   1.000
    O140    O    0.40396   0.02637   0.22393   1.000
    O141    O    0.40396   0.02637   0.72392   1.000
    O142    O    0.40395   0.52637   0.22394   1.000
    O143    O    0.40395   0.52637   0.72392   1.000
    O144    O    0.90397   0.02637   0.22393   1.000
    O145    O    0.90397   0.02637   0.72390   1.000
    O146    O    0.90396   0.52637   0.22394   1.000
    O147    O    0.90396   0.52637   0.72392   1.000
    O148    O    0.38366   0.06523   0.06524   1.000
    O149    O    0.38366   0.06523   0.56523   1.000
    O150    O    0.38366   0.56522   0.06525   1.000
    O151    O    0.38366   0.56522   0.56523   1.000
    O152    O    0.88367   0.06523   0.06524   1.000
    O153    O    0.88367   0.06523   0.56523   1.000
    O154    O    0.88367   0.56522   0.06520   1.000
    O155    O    0.88367   0.56522   0.56523   1.000
    O156    O    0.40395   0.22397   0.02635   1.000
    O157    O    0.40395   0.22397   0.52634   1.000
    O158    O    0.40396   0.72395   0.02635   1.000
    O159    O    0.40395   0.72396   0.52633   1.000
    O160    O    0.90396   0.22397   0.02635   1.000
    O161    O    0.90396   0.22397   0.52634   1.000
    O162    O    0.90397   0.72396   0.02634   1.000
    O163    O    0.90397   0.72396   0.52630   1.000
    O164    O    0.44892   0.31518   0.43476   1.000
    O165    O    0.44893   0.31518   0.93470   1.000
    O166    O    0.44893   0.81517   0.43476   1.000
    O167    O    0.44893   0.81517   0.93474   1.000
    O168    O    0.94893   0.31518   0.43476   1.000
    O169    O    0.94894   0.31518   0.93475   1.000
    O170    O    0.94894   0.81517   0.43476   1.000
    O171    O    0.12791   0.77620   0.77615   1.000
    O172    O    0.62792   0.27620   0.27617   1.000
    O173    O    0.62792   0.27621   0.77615   1.000
    O174    O    0.62792   0.77620   0.27616   1.000
    O175    O    0.62792   0.77620   0.77615   1.000
    O176    O    0.44889   0.43484   0.31518   1.000
    O177    O    0.44889   0.43484   0.81517   1.000
    O178    O    0.44890   0.93483   0.31518   1.000
    O179    O    0.44890   0.93483   0.81517   1.000
    O180    O    0.94890   0.43484   0.31518   1.000
    O181    O    0.94891   0.43484   0.81517   1.000
    O182    O    0.94891   0.93483   0.31518   1.000
    O183    O    0.94891   0.93483   0.81516   1.000
    O184    O    0.43031   0.47382   0.47376   1.000
    O185    O    0.43031   0.47382   0.97374   1.000
    O186    O    0.43031   0.97381   0.47375   1.000
    O187    O    0.43031   0.97381   0.97374   1.000
    O188    O    0.93032   0.47382   0.47370   1.000
    O189    O    0.93032   0.47382   0.97374   1.000
    O190    O    0.93032   0.97381   0.47375   1.000
    O191    O    0.93032   0.97382   0.97374   1.000
loop_
    _geom_bond_atom_site_label_1
    _geom_bond_atom_site_label_2
    _geom_bond_distance
    _geom_bond_site_symmetry_2
    _ccdc_geom_bond_type
    C42    O150      1.26814      .   S
    C42    O185      1.26531  1_554   S
    C42    C13       1.54535  1_554   S
    C46    O154      1.26762      .   S
    C46    O189      1.26534  1_554   S
    C46    C9        1.54499  1_654   S
    C40    O148      1.26806      .   S
    C40    O187      1.26554  1_544   S
    C40    C15       1.54526  1_544   S
    C44    O152      1.26806      .   S
    C44    O191      1.26550  1_544   S
    C44    C11       1.54492  1_644   S
    C16    O100      1.26819      .   S
    C16    O93       1.26512  1_554   S
    C16    C53       1.54516  1_454   S
    C20    O104      1.26807      .   S
    C20    O97       1.26516  1_554   S
    C20    C49       1.54564  1_554   S
    C22    O106      1.26805      .   S
    C22    O99       1.26516  1_554   S
    C22    C51       1.54671  1_554   S
    C18    O102      1.26805      .   S
    C18    O95       1.26516  1_554   S
    C18    C55       1.54540  1_454   S
    O126   C9        1.26438  1_554   S
    O162   C55       1.26515  1_554   S
    O156   C49       1.26516  1_554   S
    O160   C53       1.26516  1_554   S
    O158   C51       1.26531  1_554   S
    O124   C11       1.26555  1_544   S
    O128   C15       1.26558  1_544   S
    O130   C13       1.26537  1_554   S
    O138   C38       1.26796      .   S
    O134   C34       1.26809      .   S
    O132   C32       1.26809      .   S
    O136   C36       1.26798      .   S
    O122   C30       1.26800      .   S
    O120   C28       1.26803      .   S
    O118   C26       1.26800      .   S
    O116   C24       1.26803      .   S
    O144   C62       1.26502  1_545   S
    O140   C58       1.26500  1_545   S
    O146   C60       1.26491      .   S
    O142   C56       1.26492      .   S
    O114   C6        1.26500      .   S
    O110   C2        1.26500      .   S
    O112   C4        1.26500      .   S
    O108   C0        1.26498      .   S
    C38    C6        1.54559      .   S
    C38    O174      1.26501      .   S
    C36    C4        1.54559      .   S
    C36    O172      1.26501      .   S
    C32    C0        1.54549      .   S
    C32    O69       1.26499      .   S
    C34    C2        1.54550      .   S
    C34    O71       1.26498      .   S
    C26    C60       1.54508  1_455   S
    C26    O76       1.26500      .   S
    C28    C58       1.54561  1_545   S
    C28    O82       1.26495  1_545   S
    C30    C56       1.54543      .   S
    C30    O80       1.26500      .   S
    C24    C62       1.54524  1_445   S
    C24    O78       1.26509  1_545   S
    C56    O176      1.26804      .   S
    C62    O182      1.26807      .   S
    C60    O180      1.26804      .   S
    C58    O178      1.26807      .   S
    C6     O74       1.26801      .   S
    C2     O66       1.26800      .   S
    C0     O64       1.26812      .   S
    C4     O72       1.26799      .   S
    O168   C52       1.26803      .   S
    O170   C54       1.26804      .   S
    O166   C50       1.26803      .   S
    O164   C48       1.26802      .   S
    O84    C8        1.26806      .   S
    O90    C14       1.26806      .   S
    O88    C12       1.26796      .   S
    O86    C10       1.26766      .   S
    O188   C47       1.26584      .   S
    O190   C45       1.26536  1_565   S
    O186   C41       1.26533  1_565   S
    O184   C43       1.26500      .   S
    O98    C23       1.26500      .   S
    O94    C19       1.26485      .   S
    O96    C21       1.26502      .   S
    O92    C17       1.26501      .   S
    C10    C45       1.54480  1_465   S
    C10    O125      1.26568  1_565   S
    C54    C19       1.54391  1_655   S
    C54    O163      1.26495      .   S
    C52    C17       1.54511  1_655   S
    C52    O161      1.26501      .   S
    C50    C23       1.54534      .   S
    C50    O159      1.26501      .   S
    C48    C21       1.54546      .   S
    C48    O157      1.26502      .   S
    C12    C43       1.54538      .   S
    C12    O131      1.26505      .   S
    C8     C47       1.54502  1_455   S
    C8     O127      1.26504      .   S
    C14    C41       1.54533  1_565   S
    C14    O129      1.26440  1_565   S
    C19    O103      1.26920      .   S
    C45    O153      1.26805      .   S
    C43    O151      1.26804      .   S
    C41    O149      1.26804      .   S
    C47    O155      1.26802      .   S
    C23    O107      1.26807      .   S
    C17    O101      1.26759      .   S
    C21    O105      1.26809      .   S
    O137   C37       1.26811      .   S
    O133   C33       1.26810      .   S
    O135   C35       1.26799      .   S
    O139   C39       1.26797      .   S
    O123   C31       1.26738      .   S
    O119   C27       1.26812      .   S
    O121   C29       1.26803      .   S
    O117   C25       1.26803      .   S
    O145   C63       1.26529  1_545   S
    O109   C1        1.26508      .   S
    O143   C57       1.26505      .   S
    O147   C61       1.26505      .   S
    O141   C59       1.26499  1_545   S
    O115   C7        1.26501      .   S
    O113   C5        1.26500      .   S
    O111   C3        1.26491      .   S
    C31    C57       1.54515      .   S
    C31    O81       1.26514      .   S
    C35    C3        1.54486      .   S
    C35    O171      1.26499      .   S
    C39    C7        1.54559      .   S
    C39    O175      1.26499      .   S
    C33    C1        1.54548      .   S
    C33    O70       1.26499      .   S
    C37    C5        1.54547      .   S
    C37    O173      1.26499      .   S
    C25    C63       1.54527  1_445   S
    C25    O79       1.26495  1_545   S
    C29    C59       1.54562  1_545   S
    C29    O83       1.26495  1_545   S
    C27    C61       1.54508  1_455   S
    C27    O77       1.26500      .   S
    C3     O67       1.26876      .   S
    C57    O177      1.26804      .   S
    C63    O183      1.26795      .   S
    C61    O181      1.26804      .   S
    C59    O179      1.26806      .   S
    C5     O73       1.26801      .   S
    C7     O75       1.26799      .   S
    C1     O65       1.26787      .   S
    O165   C49       1.26863      .   S
    O167   C51       1.26702      .   S
    O68    C55       1.26803      .   S
    O169   C53       1.26799      .   S
    O91    C15       1.26809      .   S
    O89    C13       1.26806      .   S
    O87    C11       1.26808      .   S
    O85    C9        1.26807      .   S
