# CIF file generated by openbabel 2.4.90, see http://openbabel.sf.net
data_I
_chemical_name_common ''
_cell_length_a 17.202
_cell_length_b 18.548
_cell_length_c 18.556
_cell_angle_alpha 77.633
_cell_angle_beta 62.433
_cell_angle_gamma 62.424
_space_group_name_H-M_alt 'P 1'
_space_group_name_Hall 'P 1'
loop_
    _symmetry_equiv_pos_as_xyz
    x,y,z
loop_
    _atom_site_label
    _atom_site_type_symbol
    _atom_site_fract_x
    _atom_site_fract_y
    _atom_site_fract_z
    _atom_site_occupancy
    C0      C    0.28121   0.26119   0.26117   1.000
    C1      C    0.28121   0.26120   0.76116   1.000
    C2      C    0.28122   0.76119   0.26117   1.000
    C3      C    0.28122   0.76119   0.76110   1.000
    C4      C    0.78122   0.26119   0.26118   1.000
    C5      C    0.78122   0.26120   0.76116   1.000
    C6      C    0.78123   0.76119   0.26117   1.000
    C7      C    0.78123   0.76119   0.76116   1.000
    C8      C    0.05332   0.48909   0.48903   1.000
    C9      C    0.05332   0.48909   0.98902   1.000
    C10     C    0.05332   0.98908   0.48900   1.000
    C11     C    0.05332   0.98909   0.98902   1.000
    C12     C    0.55333   0.48909   0.48903   1.000
    C13     C    0.55333   0.48909   0.98902   1.000
    C14     C    0.55333   0.98908   0.48904   1.000
    C15     C    0.55333   0.98909   0.98902   1.000
    C16     C    0.04231   0.23904   0.01110   1.000
    C17     C    0.04232   0.23905   0.51110   1.000
    C18     C    0.04232   0.73903   0.01111   1.000
    C19     C    0.04232   0.73903   0.51100   1.000
    C20     C    0.54233   0.23905   0.01111   1.000
    C21     C    0.54233   0.23904   0.51110   1.000
    C22     C    0.54233   0.73903   0.01111   1.000
    C23     C    0.54233   0.73904   0.51109   1.000
    C24     C    0.04233   0.01114   0.23898   1.000
    C25     C    0.04233   0.01115   0.73897   1.000
    C26     C    0.04233   0.51113   0.23898   1.000
    C27     C    0.04233   0.51114   0.73897   1.000
    C28     C    0.54234   0.01114   0.23898   1.000
    C29     C    0.54234   0.01114   0.73897   1.000
    C30     C    0.54234   0.51113   0.23898   1.000
    C31     C    0.54234   0.51114   0.73890   1.000
    C32     C    0.21870   0.23900   0.23896   1.000
    C33     C    0.21870   0.23900   0.73895   1.000
    C34     C    0.21870   0.73900   0.23896   1.000
    C35     C    0.21870   0.73900   0.73894   1.000
    C36     C    0.71871   0.23900   0.23896   1.000
    C37     C    0.71871   0.23900   0.73895   1.000
    C38     C    0.71871   0.73900   0.23895   1.000
    C39     C    0.71871   0.73900   0.73894   1.000
    C40     C    0.44657   0.01112   0.01109   1.000
    C41     C    0.44657   0.01112   0.51108   1.000
    C42     C    0.44657   0.51111   0.01109   1.000
    C43     C    0.44657   0.51112   0.51108   1.000
    C44     C    0.94659   0.01112   0.01109   1.000
    C45     C    0.94659   0.01112   0.51108   1.000
    C46     C    0.94658   0.51111   0.01109   1.000
    C47     C    0.94659   0.51112   0.51108   1.000
    C48     C    0.45760   0.26116   0.48900   1.000
    C49     C    0.45760   0.26116   0.98899   1.000
    C50     C    0.45761   0.76115   0.48900   1.000
    C51     C    0.45761   0.76115   0.98890   1.000
    C52     C    0.95761   0.26116   0.48900   1.000
    C53     C    0.95761   0.26116   0.98899   1.000
    C54     C    0.95762   0.76114   0.48900   1.000
    C55     C    0.95762   0.76115   0.98898   1.000
    C56     C    0.45760   0.48904   0.26112   1.000
    C57     C    0.45760   0.48905   0.76111   1.000
    C58     C    0.45760   0.98904   0.26112   1.000
    C59     C    0.45760   0.98904   0.76111   1.000
    C60     C    0.95761   0.48905   0.26112   1.000
    C61     C    0.95761   0.48905   0.76111   1.000
    C62     C    0.95761   0.98904   0.26112   1.000
    C63     C    0.95761   0.98904   0.76111   1.000
loop_
    _geom_bond_atom_site_label_1
    _geom_bond_atom_site_label_2
    _geom_bond_distance
    _geom_bond_site_symmetry_2
    _ccdc_geom_bond_type
    C42    C13       1.54535  1_554   S
    C46    C9        1.54499  1_654   S
    C40    C15       1.54526  1_544   S
    C44    C11       1.54492  1_644   S
    C16    C53       1.54516  1_454   S
    C20    C49       1.54564  1_554   S
    C22    C51       1.54671  1_554   S
    C18    C55       1.54540  1_454   S
    C38    C6        1.54559      .   S
    C36    C4        1.54559      .   S
    C32    C0        1.54549      .   S
    C34    C2        1.54550      .   S
    C26    C60       1.54508  1_455   S
    C28    C58       1.54561  1_545   S
    C30    C56       1.54543      .   S
    C24    C62       1.54524  1_445   S
    C10    C45       1.54480  1_465   S
    C54    C19       1.54391  1_655   S
    C52    C17       1.54511  1_655   S
    C50    C23       1.54534      .   S
    C48    C21       1.54546      .   S
    C12    C43       1.54538      .   S
    C8     C47       1.54502  1_455   S
    C14    C41       1.54533  1_565   S
    C31    C57       1.54515      .   S
    C35    C3        1.54486      .   S
    C39    C7        1.54559      .   S
    C33    C1        1.54548      .   S
    C37    C5        1.54547      .   S
    C25    C63       1.54527  1_445   S
    C29    C59       1.54562  1_545   S
    C27    C61       1.54508  1_455   S
