# CIF file generated by openbabel 2.4.90, see http://openbabel.sf.net
data_I
_chemical_name_common ''
_cell_length_a 17.202
_cell_length_b 18.548
_cell_length_c 18.556
_cell_angle_alpha 77.633
_cell_angle_beta 62.433
_cell_angle_gamma 62.424
_space_group_name_H-M_alt 'P 1'
_space_group_name_Hall 'P 1'
loop_
    _symmetry_equiv_pos_as_xyz
    x,y,z
loop_
    _atom_site_label
    _atom_site_type_symbol
    _atom_site_fract_x
    _atom_site_fract_y
    _atom_site_fract_z
    _atom_site_occupancy
    Zr0     Zr   0.31230   0.37526   0.37520   1.000
    Zr1     Zr   0.31230   0.37526   0.87521   1.000
    Zr2     Zr   0.31230   0.87525   0.37522   1.000
    Zr3     Zr   0.31230   0.87525   0.87521   1.000
    Zr4     Zr   0.81231   0.37526   0.37522   1.000
    Zr5     Zr   0.81231   0.37526   0.87521   1.000
    Zr6     Zr   0.81231   0.87525   0.37522   1.000
    Zr7     Zr   0.81231   0.87525   0.87521   1.000
    Zr8     Zr   0.18761   0.12495   0.12490   1.000
    Zr9     Zr   0.18761   0.12495   0.62488   1.000
    Zr10    Zr   0.18761   0.62494   0.12490   1.000
    Zr11    Zr   0.18761   0.62494   0.62488   1.000
    Zr12    Zr   0.68762   0.12495   0.12490   1.000
    Zr13    Zr   0.68762   0.12495   0.62488   1.000
    Zr14    Zr   0.68762   0.62494   0.12490   1.000
    Zr15    Zr   0.68762   0.62494   0.62488   1.000
    Zr16    Zr   0.06251   0.37504   0.37499   1.000
    Zr17    Zr   0.06251   0.37504   0.87490   1.000
    Zr18    Zr   0.06251   0.87503   0.37499   1.000
    Zr19    Zr   0.06251   0.87503   0.87497   1.000
    Zr20    Zr   0.56252   0.37504   0.37499   1.000
    Zr21    Zr   0.56252   0.37504   0.87497   1.000
    Zr22    Zr   0.56252   0.87503   0.37490   1.000
    Zr23    Zr   0.56252   0.87503   0.87497   1.000
    Zr24    Zr   0.43740   0.12516   0.12513   1.000
    Zr25    Zr   0.43740   0.12516   0.62512   1.000
    Zr26    Zr   0.43740   0.62516   0.12513   1.000
    Zr27    Zr   0.43740   0.62516   0.62512   1.000
    Zr28    Zr   0.93741   0.12516   0.12513   1.000
    Zr29    Zr   0.93741   0.12517   0.62512   1.000
    Zr30    Zr   0.93741   0.62516   0.12513   1.000
    Zr31    Zr   0.93741   0.62516   0.62512   1.000
    Zr32    Zr   0.28121   0.26119   0.26117   1.000
    Zr33    Zr   0.28121   0.26120   0.76116   1.000
    Zr34    Zr   0.28122   0.76119   0.26117   1.000
    Zr35    Zr   0.28122   0.76119   0.76110   1.000
    Zr36    Zr   0.78122   0.26119   0.26118   1.000
    Zr37    Zr   0.78122   0.26120   0.76116   1.000
    Zr38    Zr   0.78123   0.76119   0.26117   1.000
    Zr39    Zr   0.78123   0.76119   0.76116   1.000
    Zr40    Zr   0.05332   0.48909   0.48903   1.000
    Zr41    Zr   0.05332   0.48909   0.98902   1.000
    Zr42    Zr   0.05332   0.98908   0.48900   1.000
    Zr43    Zr   0.05332   0.98909   0.98902   1.000
    Zr44    Zr   0.55333   0.48909   0.48903   1.000
    Zr45    Zr   0.55333   0.48909   0.98902   1.000
    Zr46    Zr   0.55333   0.98908   0.48904   1.000
    Zr47    Zr   0.55333   0.98909   0.98902   1.000
    Zr48    Zr   0.04231   0.23904   0.01110   1.000
    Zr49    Zr   0.04232   0.23905   0.51110   1.000
    Zr50    Zr   0.04232   0.73903   0.01111   1.000
    Zr51    Zr   0.04232   0.73903   0.51100   1.000
    Zr52    Zr   0.54233   0.23905   0.01111   1.000
    Zr53    Zr   0.54233   0.23904   0.51110   1.000
    Zr54    Zr   0.54233   0.73903   0.01111   1.000
    Zr55    Zr   0.54233   0.73904   0.51109   1.000
    Zr56    Zr   0.04233   0.01114   0.23898   1.000
    Zr57    Zr   0.04233   0.01115   0.73897   1.000
    Zr58    Zr   0.04233   0.51113   0.23898   1.000
    Zr59    Zr   0.04233   0.51114   0.73897   1.000
    Zr60    Zr   0.54234   0.01114   0.23898   1.000
    Zr61    Zr   0.54234   0.01114   0.73897   1.000
    Zr62    Zr   0.54234   0.51113   0.23898   1.000
    Zr63    Zr   0.54234   0.51114   0.73890   1.000
    Zr64    Zr   0.21870   0.23900   0.23896   1.000
    Zr65    Zr   0.21870   0.23900   0.73895   1.000
    Zr66    Zr   0.21870   0.73900   0.23896   1.000
    Zr67    Zr   0.21870   0.73900   0.73894   1.000
    Zr68    Zr   0.71871   0.23900   0.23896   1.000
    Zr69    Zr   0.71871   0.23900   0.73895   1.000
    Zr70    Zr   0.71871   0.73900   0.23895   1.000
    Zr71    Zr   0.71871   0.73900   0.73894   1.000
    Zr72    Zr   0.44657   0.01112   0.01109   1.000
    Zr73    Zr   0.44657   0.01112   0.51108   1.000
    Zr74    Zr   0.44657   0.51111   0.01109   1.000
    Zr75    Zr   0.44657   0.51112   0.51108   1.000
    Zr76    Zr   0.94659   0.01112   0.01109   1.000
    Zr77    Zr   0.94659   0.01112   0.51108   1.000
    Zr78    Zr   0.94658   0.51111   0.01109   1.000
    Zr79    Zr   0.94659   0.51112   0.51108   1.000
    Zr80    Zr   0.45760   0.26116   0.48900   1.000
    Zr81    Zr   0.45760   0.26116   0.98899   1.000
    Zr82    Zr   0.45761   0.76115   0.48900   1.000
    Zr83    Zr   0.45761   0.76115   0.98890   1.000
    Zr84    Zr   0.95761   0.26116   0.48900   1.000
    Zr85    Zr   0.95761   0.26116   0.98899   1.000
    Zr86    Zr   0.95762   0.76114   0.48900   1.000
    Zr87    Zr   0.95762   0.76115   0.98898   1.000
    Zr88    Zr   0.45760   0.48904   0.26112   1.000
    Zr89    Zr   0.45760   0.48905   0.76111   1.000
    Zr90    Zr   0.45760   0.98904   0.26112   1.000
    Zr91    Zr   0.45760   0.98904   0.76111   1.000
    Zr92    Zr   0.95761   0.48905   0.26112   1.000
    Zr93    Zr   0.95761   0.48905   0.76111   1.000
    Zr94    Zr   0.95761   0.98904   0.26112   1.000
    Zr95    Zr   0.95761   0.98904   0.76111   1.000
    Zr96    Zr   0.23583   0.31533   0.31533   1.000
    Zr97    Zr   0.23583   0.31533   0.81530   1.000
    Zr98    Zr   0.23584   0.81533   0.31532   1.000
    Zr99    Zr   0.23584   0.81533   0.81531   1.000
    Zr100   Zr   0.73584   0.31533   0.31533   1.000
    Zr101   Zr   0.73584   0.31534   0.81531   1.000
    Zr102   Zr   0.73585   0.81533   0.31532   1.000
    Zr103   Zr   0.73585   0.81533   0.81531   1.000
    Zr104   Zr   0.09597   0.47382   0.27617   1.000
    Zr105   Zr   0.09598   0.47382   0.77616   1.000
    Zr106   Zr   0.09597   0.97382   0.27618   1.000
    Zr107   Zr   0.09597   0.97382   0.77616   1.000
    Zr108   Zr   0.59598   0.47381   0.27617   1.000
    Zr109   Zr   0.59599   0.47382   0.77610   1.000
    Zr110   Zr   0.59598   0.97382   0.27617   1.000
    Zr111   Zr   0.59598   0.97382   0.77616   1.000
    Zr112   Zr   0.11624   0.43498   0.43488   1.000
    Zr113   Zr   0.11624   0.43498   0.93487   1.000
    Zr114   Zr   0.11624   0.93497   0.43489   1.000
    Zr115   Zr   0.11624   0.93498   0.93487   1.000
    Zr116   Zr   0.61625   0.43498   0.43489   1.000
    Zr117   Zr   0.61625   0.43499   0.93487   1.000
    Zr118   Zr   0.61625   0.93497   0.43489   1.000
    Zr119   Zr   0.61625   0.93498   0.93487   1.000
    Zr120   Zr   0.09596   0.27624   0.47377   1.000
    Zr121   Zr   0.09596   0.27624   0.97376   1.000
    Zr122   Zr   0.09597   0.77622   0.47376   1.000
    Zr123   Zr   0.09597   0.77623   0.97375   1.000
    Zr124   Zr   0.59597   0.27623   0.47377   1.000
    Zr125   Zr   0.59597   0.27624   0.97375   1.000
    Zr126   Zr   0.59598   0.77622   0.47376   1.000
    Zr127   Zr   0.59598   0.77623   0.97375   1.000
    Zr128   Zr   0.05099   0.18502   0.06535   1.000
    Zr129   Zr   0.05100   0.18502   0.56530   1.000
    Zr130   Zr   0.05100   0.68501   0.06535   1.000
    Zr131   Zr   0.05100   0.68501   0.56533   1.000
    Zr132   Zr   0.55100   0.18502   0.06535   1.000
    Zr133   Zr   0.55101   0.18502   0.56534   1.000
    Zr134   Zr   0.55101   0.68501   0.06535   1.000
    Zr135   Zr   0.55101   0.68501   0.56533   1.000
    Zr136   Zr   0.37200   0.22399   0.22397   1.000
    Zr137   Zr   0.37200   0.22399   0.72390   1.000
    Zr138   Zr   0.37201   0.72399   0.22396   1.000
    Zr139   Zr   0.37201   0.72399   0.72395   1.000
    Zr140   Zr   0.87201   0.22399   0.22397   1.000
    Zr141   Zr   0.87201   0.22399   0.72395   1.000
    Zr142   Zr   0.87202   0.72399   0.22396   1.000
    Zr143   Zr   0.87202   0.72399   0.72395   1.000
    Zr144   Zr   0.05104   0.06535   0.18492   1.000
    Zr145   Zr   0.05104   0.06535   0.68491   1.000
    Zr146   Zr   0.05104   0.56534   0.18492   1.000
    Zr147   Zr   0.05104   0.56534   0.68490   1.000
    Zr148   Zr   0.55105   0.06535   0.18492   1.000
    Zr149   Zr   0.55105   0.06535   0.68491   1.000
    Zr150   Zr   0.55105   0.56534   0.18492   1.000
    Zr151   Zr   0.55105   0.56534   0.68490   1.000
    Zr152   Zr   0.06959   0.02639   0.02637   1.000
    Zr153   Zr   0.06959   0.02639   0.52635   1.000
    Zr154   Zr   0.06959   0.52638   0.02630   1.000
    Zr155   Zr   0.06959   0.52638   0.52635   1.000
    Zr156   Zr   0.56960   0.02639   0.02637   1.000
    Zr157   Zr   0.56960   0.02639   0.52630   1.000
    Zr158   Zr   0.56960   0.52638   0.02637   1.000
    Zr159   Zr   0.56960   0.52639   0.52635   1.000
    Zr160   Zr   0.26408   0.18487   0.18480   1.000
    Zr161   Zr   0.26408   0.18486   0.68479   1.000
    Zr162   Zr   0.26409   0.68486   0.18480   1.000
    Zr163   Zr   0.26409   0.68486   0.68479   1.000
    Zr164   Zr   0.76409   0.18486   0.18481   1.000
    Zr165   Zr   0.76409   0.18487   0.68479   1.000
    Zr166   Zr   0.76410   0.68486   0.18480   1.000
    Zr167   Zr   0.76410   0.68486   0.68479   1.000
    Zr168   Zr   0.40396   0.02637   0.22393   1.000
    Zr169   Zr   0.40396   0.02637   0.72392   1.000
    Zr170   Zr   0.40395   0.52637   0.22394   1.000
    Zr171   Zr   0.40395   0.52637   0.72392   1.000
    Zr172   Zr   0.90397   0.02637   0.22393   1.000
    Zr173   Zr   0.90397   0.02637   0.72390   1.000
    Zr174   Zr   0.90396   0.52637   0.22394   1.000
    Zr175   Zr   0.90396   0.52637   0.72392   1.000
    Zr176   Zr   0.38366   0.06523   0.06524   1.000
    Zr177   Zr   0.38366   0.06523   0.56523   1.000
    Zr178   Zr   0.38366   0.56522   0.06525   1.000
    Zr179   Zr   0.38366   0.56522   0.56523   1.000
    Zr180   Zr   0.88367   0.06523   0.06524   1.000
    Zr181   Zr   0.88367   0.06523   0.56523   1.000
    Zr182   Zr   0.88367   0.56522   0.06520   1.000
    Zr183   Zr   0.88367   0.56522   0.56523   1.000
    Zr184   Zr   0.40395   0.22397   0.02635   1.000
    Zr185   Zr   0.40395   0.22397   0.52634   1.000
    Zr186   Zr   0.40396   0.72395   0.02635   1.000
    Zr187   Zr   0.40395   0.72396   0.52633   1.000
    Zr188   Zr   0.90396   0.22397   0.02635   1.000
    Zr189   Zr   0.90396   0.22397   0.52634   1.000
    Zr190   Zr   0.90397   0.72396   0.02634   1.000
    Zr191   Zr   0.90397   0.72396   0.52630   1.000
    Zr192   Zr   0.44892   0.31518   0.43476   1.000
    Zr193   Zr   0.44893   0.31518   0.93470   1.000
    Zr194   Zr   0.44893   0.81517   0.43476   1.000
    Zr195   Zr   0.44893   0.81517   0.93474   1.000
    Zr196   Zr   0.94893   0.31518   0.43476   1.000
    Zr197   Zr   0.94894   0.31518   0.93475   1.000
    Zr198   Zr   0.94894   0.81517   0.43476   1.000
    Zr199   Zr   0.94894   0.81517   0.93474   1.000
    Zr200   Zr   0.12791   0.27620   0.27617   1.000
    Zr201   Zr   0.12791   0.27620   0.77615   1.000
    Zr202   Zr   0.12791   0.77620   0.27616   1.000
    Zr203   Zr   0.12791   0.77620   0.77615   1.000
    Zr204   Zr   0.62792   0.27620   0.27617   1.000
    Zr205   Zr   0.62792   0.27621   0.77615   1.000
    Zr206   Zr   0.62792   0.77620   0.27616   1.000
    Zr207   Zr   0.62792   0.77620   0.77615   1.000
    Zr208   Zr   0.44889   0.43484   0.31518   1.000
    Zr209   Zr   0.44889   0.43484   0.81517   1.000
    Zr210   Zr   0.44890   0.93483   0.31518   1.000
    Zr211   Zr   0.44890   0.93483   0.81517   1.000
    Zr212   Zr   0.94890   0.43484   0.31518   1.000
    Zr213   Zr   0.94891   0.43484   0.81517   1.000
    Zr214   Zr   0.94891   0.93483   0.31518   1.000
    Zr215   Zr   0.94891   0.93483   0.81516   1.000
    Zr216   Zr   0.43031   0.47382   0.47376   1.000
    Zr217   Zr   0.43031   0.47382   0.97374   1.000
    Zr218   Zr   0.43031   0.97381   0.47375   1.000
    Zr219   Zr   0.43031   0.97381   0.97374   1.000
    Zr220   Zr   0.93032   0.47382   0.47370   1.000
    Zr221   Zr   0.93032   0.47382   0.97374   1.000
    Zr222   Zr   0.93032   0.97381   0.47375   1.000
    Zr223   Zr   0.93032   0.97382   0.97374   1.000
    O224    O    0.41511   0.53816   0.03817   1.000
    O225    O    0.43844   0.49247   0.99242   1.000
    O226    O    0.49995   0.50010   0.00006   1.000
    O227    O    0.91513   0.53816   0.03814   1.000
    O228    O    0.93845   0.49247   0.99242   1.000
    O229    O    0.99995   0.50010   0.00006   1.000
    O230    O    0.41511   0.03817   0.03817   1.000
    O231    O    0.43844   0.99247   0.99242   1.000
    O232    O    0.49995   0.00010   0.00006   1.000
    O233    O    0.91512   0.03817   0.03817   1.000
    O234    O    0.93845   0.99247   0.99242   1.000
    O235    O    0.99995   0.00010   0.00006   1.000
    O236    O    0.04665   0.21203   0.03823   1.000
    O237    O    0.06914   0.25764   0.99243   1.000
    O238    O    0.99996   0.25010   0.00005   1.000
    O239    O    0.54666   0.21203   0.03823   1.000
    O240    O    0.56915   0.25764   0.99243   1.000
    O241    O    0.49996   0.25010   0.00005   1.000
    O242    O    0.54667   0.71202   0.03823   1.000
    O243    O    0.56916   0.75763   0.99243   1.000
    O244    O    0.49997   0.75009   0.00001   1.000
    O245    O    0.04666   0.71202   0.03823   1.000
    O246    O    0.06914   0.75763   0.99243   1.000
    O247    O    0.99997   0.75009   0.00005   1.000
    O248    O    0.00350   0.57577   0.07572   1.000
    O249    O    0.06145   0.50774   0.00766   1.000
    O250    O    0.92069   0.67456   0.07573   1.000
    O251    O    0.93079   0.74255   0.00766   1.000
    O252    O    0.42067   0.17457   0.07574   1.000
    O253    O    0.43077   0.24256   0.00767   1.000
    O254    O    0.92068   0.17456   0.07574   1.000
    O255    O    0.93078   0.24256   0.00767   1.000
    O256    O    0.42068   0.67456   0.07574   1.000
    O257    O    0.43078   0.74255   0.00763   1.000
    O258    O    0.00350   0.07578   0.07575   1.000
    O259    O    0.06145   0.00774   0.00770   1.000
    O260    O    0.50350   0.07578   0.07575   1.000
    O261    O    0.56146   0.00774   0.00770   1.000
    O262    O    0.50350   0.57577   0.07575   1.000
    O263    O    0.56146   0.50774   0.00770   1.000
    O264    O    0.78564   0.59508   0.09505   1.000
    O265    O    0.28563   0.09509   0.09507   1.000
    O266    O    0.78564   0.09509   0.09507   1.000
    O267    O    0.28563   0.59508   0.09507   1.000
    O268    O    0.35074   0.15502   0.15496   1.000
    O269    O    0.49422   0.09526   0.15503   1.000
    O270    O    0.42068   0.07577   0.17453   1.000
    O271    O    0.40470   0.17458   0.17455   1.000
    O272    O    0.85076   0.65501   0.15496   1.000
    O273    O    0.99423   0.59525   0.15503   1.000
    O274    O    0.92069   0.57576   0.17453   1.000
    O275    O    0.90472   0.67457   0.17454   1.000
    O276    O    0.85075   0.15501   0.15497   1.000
    O277    O    0.99422   0.09526   0.15503   1.000
    O278    O    0.92069   0.07576   0.17453   1.000
    O279    O    0.90471   0.17458   0.17455   1.000
    O280    O    0.35074   0.65501   0.15496   1.000
    O281    O    0.49423   0.59525   0.15503   1.000
    O282    O    0.42068   0.57576   0.17453   1.000
    O283    O    0.40470   0.67457   0.17454   1.000
    O284    O    0.74141   0.71193   0.21188   1.000
    O285    O    0.24139   0.71193   0.21188   1.000
    O286    O    0.24139   0.21193   0.21188   1.000
    O287    O    0.74140   0.21193   0.21189   1.000
    O288    O    0.54670   0.53823   0.21195   1.000
    O289    O    0.54669   0.03825   0.21195   1.000
    O290    O    0.04669   0.53824   0.21195   1.000
    O291    O    0.04668   0.03824   0.21195   1.000
    O292    O    0.93079   0.00770   0.24253   1.000
    O293    O    0.43078   0.00770   0.24253   1.000
    O294    O    0.93079   0.50771   0.24253   1.000
    O295    O    0.43077   0.50771   0.24253   1.000
    O296    O    0.82662   0.74259   0.24257   1.000
    O297    O    0.32661   0.74259   0.24257   1.000
    O298    O    0.82662   0.24259   0.24258   1.000
    O299    O    0.32661   0.24259   0.24257   1.000
    O300    O    0.74997   0.75010   0.25006   1.000
    O301    O    0.67332   0.75760   0.25756   1.000
    O302    O    0.74997   0.25010   0.25007   1.000
    O303    O    0.67331   0.25760   0.25757   1.000
    O304    O    0.24996   0.25010   0.25007   1.000
    O305    O    0.17330   0.25760   0.25757   1.000
    O306    O    0.24996   0.75009   0.25007   1.000
    O307    O    0.17331   0.75760   0.25756   1.000
    O308    O    0.99997   0.50009   0.25005   1.000
    O309    O    0.06915   0.49248   0.25758   1.000
    O310    O    0.49997   0.00009   0.25005   1.000
    O311    O    0.56916   0.99248   0.25758   1.000
    O312    O    0.49997   0.50009   0.25005   1.000
    O313    O    0.56916   0.49247   0.25758   1.000
    O314    O    0.99997   0.00009   0.25005   1.000
    O315    O    0.06915   0.99248   0.25758   1.000
    O316    O    0.45325   0.46194   0.28815   1.000
    O317    O    0.95326   0.96193   0.28815   1.000
    O318    O    0.95326   0.46194   0.28815   1.000
    O319    O    0.45325   0.96193   0.28815   1.000
    O320    O    0.75854   0.78826   0.28825   1.000
    O321    O    0.25853   0.78826   0.28825   1.000
    O322    O    0.25852   0.28826   0.28825   1.000
    O323    O    0.75853   0.28826   0.28826   1.000
    O324    O    0.09521   0.82561   0.32558   1.000
    O325    O    0.59522   0.82562   0.32553   1.000
    O326    O    0.07924   0.42443   0.32558   1.000
    O327    O    0.09521   0.32562   0.32558   1.000
    O328    O    0.57925   0.42443   0.32558   1.000
    O329    O    0.57925   0.92442   0.32554   1.000
    O330    O    0.59522   0.32562   0.32558   1.000
    O331    O    0.07924   0.92442   0.32559   1.000
    O332    O    0.50571   0.90493   0.34504   1.000
    O333    O    0.00571   0.40494   0.34509   1.000
    O334    O    0.00571   0.90493   0.34509   1.000
    O335    O    0.50571   0.40494   0.34509   1.000
    O336    O    0.14917   0.84518   0.34515   1.000
    O337    O    0.64919   0.84518   0.34511   1.000
    O338    O    0.64918   0.34518   0.34516   1.000
    O339    O    0.14917   0.34519   0.34516   1.000
    O340    O    0.49642   0.92442   0.42433   1.000
    O341    O    0.57925   0.82563   0.42433   1.000
    O342    O    0.49641   0.42443   0.42438   1.000
    O343    O    0.57925   0.32564   0.42438   1.000
    O344    O    0.99642   0.92442   0.42437   1.000
    O345    O    0.07924   0.82563   0.42438   1.000
    O346    O    0.99641   0.42443   0.42435   1.000
    O347    O    0.07924   0.32564   0.42438   1.000
    O348    O    0.95327   0.28817   0.46188   1.000
    O349    O    0.95328   0.78816   0.46188   1.000
    O350    O    0.45327   0.78816   0.46188   1.000
    O351    O    0.45326   0.28817   0.46188   1.000
    O352    O    0.08478   0.46204   0.46196   1.000
    O353    O    0.58479   0.96203   0.46197   1.000
    O354    O    0.58479   0.46203   0.46196   1.000
    O355    O    0.08478   0.96203   0.46195   1.000
    O356    O    0.93845   0.49247   0.49239   1.000
    O357    O    0.93845   0.99247   0.49242   1.000
    O358    O    0.43844   0.99247   0.49242   1.000
    O359    O    0.43844   0.49247   0.49242   1.000
    O360    O    0.56916   0.75763   0.49243   1.000
    O361    O    0.06915   0.75763   0.49238   1.000
    O362    O    0.56915   0.25764   0.49244   1.000
    O363    O    0.06914   0.25764   0.49244   1.000
    O364    O    0.99995   0.00010   0.50004   1.000
    O365    O    0.06145   0.00774   0.50767   1.000
    O366    O    0.99997   0.75009   0.50000   1.000
    O367    O    0.93079   0.74255   0.50765   1.000
    O368    O    0.99996   0.25010   0.50005   1.000
    O369    O    0.93078   0.24257   0.50767   1.000
    O370    O    0.49997   0.75009   0.50005   1.000
    O371    O    0.43078   0.74256   0.50767   1.000
    O372    O    0.49996   0.25010   0.50005   1.000
    O373    O    0.43077   0.24256   0.50767   1.000
    O374    O    0.49995   0.50010   0.50006   1.000
    O375    O    0.56146   0.50774   0.50769   1.000
    O376    O    0.99995   0.50010   0.50006   1.000
    O377    O    0.06145   0.50774   0.50769   1.000
    O378    O    0.49995   0.00010   0.50006   1.000
    O379    O    0.56146   0.00774   0.50767   1.000
    O380    O    0.04666   0.71202   0.53817   1.000
    O381    O    0.91513   0.03818   0.53816   1.000
    O382    O    0.41511   0.53817   0.53816   1.000
    O383    O    0.41512   0.03818   0.53816   1.000
    O384    O    0.91513   0.53817   0.53816   1.000
    O385    O    0.54667   0.71202   0.53821   1.000
    O386    O    0.04666   0.21203   0.53820   1.000
    O387    O    0.54667   0.21203   0.53822   1.000
    O388    O    0.50350   0.07578   0.57571   1.000
    O389    O    0.92069   0.67456   0.57571   1.000
    O390    O    0.42068   0.67456   0.57573   1.000
    O391    O    0.42067   0.17457   0.57573   1.000
    O392    O    0.92068   0.17457   0.57573   1.000
    O393    O    0.00350   0.07578   0.57573   1.000
    O394    O    0.50350   0.57577   0.57573   1.000
    O395    O    0.00350   0.57577   0.57573   1.000
    O396    O    0.78565   0.59508   0.59506   1.000
    O397    O    0.28563   0.59508   0.59506   1.000
    O398    O    0.28563   0.09509   0.59506   1.000
    O399    O    0.61931   0.15498   0.59511   1.000
    O400    O    0.35074   0.65501   0.65496   1.000
    O401    O    0.49423   0.59525   0.65501   1.000
    O402    O    0.42068   0.57577   0.67452   1.000
    O403    O    0.40470   0.67458   0.67453   1.000
    O404    O    0.35074   0.15501   0.65496   1.000
    O405    O    0.49422   0.09526   0.65502   1.000
    O406    O    0.40470   0.17458   0.67451   1.000
    O407    O    0.42068   0.07577   0.67452   1.000
    O408    O    0.85075   0.15502   0.65496   1.000
    O409    O    0.99422   0.09526   0.65502   1.000
    O410    O    0.92069   0.07577   0.67451   1.000
    O411    O    0.90471   0.17458   0.67453   1.000
    O412    O    0.85076   0.65501   0.65496   1.000
    O413    O    0.99423   0.59525   0.65501   1.000
    O414    O    0.92069   0.57576   0.67452   1.000
    O415    O    0.90472   0.67457   0.67453   1.000
    O416    O    0.74140   0.21193   0.71187   1.000
    O417    O    0.24139   0.21193   0.71187   1.000
    O418    O    0.24139   0.71193   0.71187   1.000
    O419    O    0.74141   0.71193   0.71187   1.000
    O420    O    0.54670   0.53824   0.71190   1.000
    O421    O    0.04669   0.53824   0.71193   1.000
    O422    O    0.54670   0.03825   0.71194   1.000
    O423    O    0.04668   0.03825   0.71194   1.000
    O424    O    0.93079   0.00770   0.74250   1.000
    O425    O    0.32661   0.24259   0.74253   1.000
    O426    O    0.43078   0.50771   0.74252   1.000
    O427    O    0.93079   0.50771   0.74252   1.000
    O428    O    0.43078   0.00770   0.74252   1.000
    O429    O    0.82662   0.74259   0.74256   1.000
    O430    O    0.82662   0.24259   0.74256   1.000
    O431    O    0.32661   0.74259   0.74252   1.000
    O432    O    0.49997   0.50009   0.75001   1.000
    O433    O    0.56917   0.49248   0.75750   1.000
    O434    O    0.24996   0.75010   0.75002   1.000
    O435    O    0.17331   0.75760   0.75755   1.000
    O436    O    0.74997   0.75010   0.75005   1.000
    O437    O    0.67332   0.75760   0.75755   1.000
    O438    O    0.24996   0.25010   0.75005   1.000
    O439    O    0.17330   0.25760   0.75755   1.000
    O440    O    0.74997   0.25010   0.75005   1.000
    O441    O    0.67331   0.25761   0.75755   1.000
    O442    O    0.99997   0.00009   0.75004   1.000
    O443    O    0.06915   0.99248   0.75757   1.000
    O444    O    0.49997   0.00009   0.75004   1.000
    O445    O    0.56916   0.99248   0.75757   1.000
    O446    O    0.99997   0.50009   0.75004   1.000
    O447    O    0.06915   0.49248   0.75757   1.000
    O448    O    0.25853   0.78826   0.78821   1.000
    O449    O    0.45325   0.46195   0.78814   1.000
    O450    O    0.95326   0.96193   0.78814   1.000
    O451    O    0.95326   0.46194   0.78814   1.000
    O452    O    0.45325   0.96193   0.78814   1.000
    O453    O    0.75853   0.28827   0.78823   1.000
    O454    O    0.75854   0.78826   0.78823   1.000
    O455    O    0.25852   0.28826   0.78823   1.000
    O456    O    0.57925   0.42443   0.82554   1.000
    O457    O    0.59522   0.32562   0.82556   1.000
    O458    O    0.59522   0.82562   0.82556   1.000
    O459    O    0.09521   0.32562   0.82553   1.000
    O460    O    0.09521   0.82562   0.82556   1.000
    O461    O    0.07924   0.92443   0.82556   1.000
    O462    O    0.07924   0.42443   0.82553   1.000
    O463    O    0.57925   0.92442   0.82556   1.000
    O464    O    0.00571   0.90493   0.84507   1.000
    O465    O    0.00571   0.40494   0.84503   1.000
    O466    O    0.50571   0.40494   0.84507   1.000
    O467    O    0.50571   0.90493   0.84507   1.000
    O468    O    0.14917   0.34519   0.84510   1.000
    O469    O    0.64919   0.84518   0.84514   1.000
    O470    O    0.14917   0.84518   0.84514   1.000
    O471    O    0.64918   0.34519   0.84514   1.000
    O472    O    0.99641   0.42443   0.92432   1.000
    O473    O    0.07923   0.32564   0.92433   1.000
    O474    O    0.49642   0.92442   0.92436   1.000
    O475    O    0.57925   0.82563   0.92436   1.000
    O476    O    0.49641   0.42443   0.92436   1.000
    O477    O    0.57925   0.32564   0.92436   1.000
    O478    O    0.99642   0.92442   0.92436   1.000
    O479    O    0.07924   0.82563   0.92436   1.000
    O480    O    0.38061   0.34522   0.90495   1.000
    O481    O    0.45326   0.28817   0.96184   1.000
    O482    O    0.45327   0.78816   0.96182   1.000
    O483    O    0.95328   0.78816   0.96186   1.000
    O484    O    0.95327   0.28817   0.96187   1.000
    O485    O    0.58479   0.96203   0.96195   1.000
    O486    O    0.58479   0.46204   0.96195   1.000
    O487    O    0.08478   0.96203   0.96195   1.000
    O488    O    0.08478   0.46204   0.96195   1.000
    O489    O    0.27406   0.34530   0.34527   1.000
    O490    O    0.27407   0.34530   0.84526   1.000
    O491    O    0.27407   0.84529   0.34527   1.000
    O492    O    0.27407   0.84529   0.84526   1.000
    O493    O    0.77407   0.34530   0.34528   1.000
    O494    O    0.77408   0.34530   0.84526   1.000
    O495    O    0.77408   0.84529   0.34527   1.000
    O496    O    0.77408   0.84529   0.84526   1.000
    O497    O    0.21427   0.40512   0.40504   1.000
    O498    O    0.08937   0.40501   0.40493   1.000
    O499    O    0.21427   0.40512   0.90504   1.000
    O500    O    0.08937   0.40501   0.90489   1.000
    O501    O    0.21427   0.90511   0.40506   1.000
    O502    O    0.08938   0.90500   0.40494   1.000
    O503    O    0.21427   0.90511   0.90504   1.000
    O504    O    0.08938   0.90501   0.90492   1.000
    O505    O    0.71428   0.40512   0.40506   1.000
    O506    O    0.58938   0.40501   0.40494   1.000
    O507    O    0.71428   0.40512   0.90504   1.000
    O508    O    0.58939   0.40501   0.90492   1.000
    O509    O    0.71428   0.90511   0.40506   1.000
    O510    O    0.58939   0.90500   0.40490   1.000
    O511    O    0.71428   0.90511   0.90504   1.000
    O512    O    0.58939   0.90500   0.90492   1.000
    O513    O    0.11930   0.15498   0.09513   1.000
    O514    O    0.99420   0.15509   0.09524   1.000
    O515    O    0.11930   0.15498   0.59509   1.000
    O516    O    0.99420   0.15509   0.59521   1.000
    O517    O    0.11931   0.65497   0.09513   1.000
    O518    O    0.99421   0.65508   0.09524   1.000
    O519    O    0.11931   0.65497   0.59510   1.000
    O520    O    0.99421   0.65508   0.59523   1.000
    O521    O    0.61931   0.15498   0.09513   1.000
    O522    O    0.49420   0.15509   0.09524   1.000
    O523    O    0.49420   0.15509   0.59523   1.000
    O524    O    0.61932   0.65497   0.09513   1.000
    O525    O    0.49421   0.65508   0.09524   1.000
    O526    O    0.61932   0.65498   0.59510   1.000
    O527    O    0.49421   0.65509   0.59523   1.000
    O528    O    0.11932   0.09515   0.15491   1.000
    O529    O    0.11932   0.09515   0.65490   1.000
    O530    O    0.11933   0.59514   0.15491   1.000
    O531    O    0.11933   0.59514   0.65489   1.000
    O532    O    0.61933   0.09515   0.15491   1.000
    O533    O    0.61934   0.09515   0.65490   1.000
    O534    O    0.61934   0.59514   0.15491   1.000
    O535    O    0.61934   0.59514   0.65489   1.000
    O536    O    0.22585   0.15491   0.15485   1.000
    O537    O    0.22585   0.15491   0.65484   1.000
    O538    O    0.22585   0.65490   0.15485   1.000
    O539    O    0.22585   0.65490   0.65484   1.000
    O540    O    0.72586   0.15491   0.15486   1.000
    O541    O    0.72586   0.15491   0.65484   1.000
    O542    O    0.72586   0.65490   0.15485   1.000
    O543    O    0.72586   0.65490   0.65484   1.000
    O544    O    0.41053   0.09520   0.09518   1.000
    O545    O    0.41053   0.09520   0.59518   1.000
    O546    O    0.41053   0.59519   0.09519   1.000
    O547    O    0.41053   0.59519   0.59518   1.000
    O548    O    0.91054   0.09520   0.09518   1.000
    O549    O    0.78564   0.09509   0.59506   1.000
    O550    O    0.91054   0.09520   0.59518   1.000
    O551    O    0.91054   0.59519   0.09516   1.000
    O552    O    0.91054   0.59519   0.59518   1.000
    O553    O    0.38061   0.34522   0.40498   1.000
    O554    O    0.50572   0.34511   0.40487   1.000
    O555    O    0.50572   0.34511   0.90484   1.000
    O556    O    0.38061   0.84521   0.40499   1.000
    O557    O    0.50573   0.84510   0.40483   1.000
    O558    O    0.38062   0.84521   0.90497   1.000
    O559    O    0.50573   0.84510   0.90486   1.000
    O560    O    0.88062   0.34522   0.40499   1.000
    O561    O    0.00572   0.34511   0.40487   1.000
    O562    O    0.88062   0.34522   0.90498   1.000
    O563    O    0.00572   0.34511   0.90483   1.000
    O564    O    0.88062   0.84521   0.40499   1.000
    O565    O    0.00573   0.84510   0.40487   1.000
    O566    O    0.88063   0.84521   0.90497   1.000
    O567    O    0.00573   0.84510   0.90486   1.000
    O568    O    0.38060   0.40505   0.34519   1.000
    O569    O    0.38060   0.40505   0.84519   1.000
    O570    O    0.38060   0.90504   0.34520   1.000
    O571    O    0.38060   0.90504   0.84519   1.000
    O572    O    0.88061   0.40505   0.34520   1.000
    O573    O    0.88061   0.40505   0.84519   1.000
    O574    O    0.88061   0.90504   0.34520   1.000
    O575    O    0.88061   0.90504   0.84519   1.000
loop_
    _geom_bond_atom_site_label_1
    _geom_bond_atom_site_label_2
    _geom_bond_distance
    _geom_bond_site_symmetry_2
    _ccdc_geom_bond_type
    Zr74   O224      0.63407      .   S
    Zr178  O224      0.63407      .   S
    Zr74   O225      0.63266  1_554   S
    Zr217  O225      0.63266      .   S
    Zr74   O226      0.77268      .   S
    Zr45   O226      0.77268  1_556   S
    Zr78   O227      0.63381      .   S
    Zr182  O227      0.63381      .   S
    Zr78   O228      0.63267  1_554   S
    Zr221  O228      0.63267      .   S
    Zr78   O229      0.77250      .   S
    Zr41   O229      0.77250  1_456   S
    Zr72   O230      0.63403      .   S
    Zr176  O230      0.63403      .   S
    Zr72   O231      0.63277  1_544   S
    Zr219  O231      0.63277      .   S
    Zr72   O232      0.77263      .   S
    Zr47   O232      0.77263  1_566   S
    Zr76   O233      0.63403      .   S
    Zr180  O233      0.63403      .   S
    Zr76   O234      0.63275  1_544   S
    Zr223  O234      0.63275      .   S
    Zr76   O235      0.77246      .   S
    Zr43   O235      0.77246  1_466   S
    Zr48   O236      0.63410      .   S
    Zr128  O236      0.63410      .   S
    Zr48   O237      0.63256  1_554   S
    Zr121  O237      0.63256      .   S
    Zr48   O238      0.77258  1_455   S
    Zr85   O238      0.77258  1_556   S
    Zr52   O239      0.63403      .   S
    Zr132  O239      0.63403      .   S
    Zr52   O240      0.63258  1_554   S
    Zr125  O240      0.63258      .   S
    Zr52   O241      0.77282      .   S
    Zr81   O241      0.77282  1_556   S
    Zr54   O242      0.63402      .   S
    Zr134  O242      0.63402      .   S
    Zr54   O243      0.63258  1_554   S
    Zr127  O243      0.63258      .   S
    Zr54   O244      0.77336      .   S
    Zr83   O244      0.77336  1_556   S
    Zr50   O245      0.63402      .   S
    Zr130  O245      0.63402      .   S
    Zr50   O246      0.63258  1_554   S
    Zr123  O246      0.63258      .   S
    Zr50   O247      0.77270  1_455   S
    Zr87   O247      0.77270  1_556   S
    Zr154  O248      1.18453      .   S
    Zr30   O248      1.18453  1_655   S
    Zr154  O249      0.63219      .   S
    Zr41   O249      0.63219  1_556   S
    Zr190  O250      1.18434      .   S
    Zr30   O250      1.18434      .   S
    Zr190  O251      0.63258      .   S
    Zr87   O251      0.63258  1_556   S
    Zr184  O252      1.18431      .   S
    Zr24   O252      1.18431      .   S
    Zr184  O253      0.63258      .   S
    Zr81   O253      0.63258  1_556   S
    Zr188  O254      1.18430      .   S
    Zr28   O254      1.18430      .   S
    Zr188  O255      0.63258      .   S
    Zr85   O255      0.63258  1_556   S
    Zr186  O256      1.18427      .   S
    Zr26   O256      1.18427      .   S
    Zr186  O257      0.63265      .   S
    Zr83   O257      0.63265  1_556   S
    Zr152  O258      1.18420      .   S
    Zr28   O258      1.18420  1_655   S
    Zr152  O259      0.63278      .   S
    Zr43   O259      0.63278  1_566   S
    Zr156  O260      1.18425      .   S
    Zr24   O260      1.18425      .   S
    Zr156  O261      0.63279      .   S
    Zr47   O261      0.63279  1_566   S
    Zr158  O262      1.18425      .   S
    Zr26   O262      1.18425      .   S
    Zr158  O263      0.63268      .   S
    Zr45   O263      0.63268  1_556   S
    Zr182  O264      1.36346      .   S
    Zr14   O264      1.36346      .   S
    Zr176  O265      1.36351      .   S
    Zr8    O265      1.36351      .   S
    Zr180  O266      1.36350      .   S
    Zr12   O266      1.36350      .   S
    Zr178  O267      1.36350      .   S
    Zr10   O267      1.36350      .   S
    Zr24   O268      1.19938      .   S
    Zr160  O268      1.19938      .   S
    Zr24   O269      1.19957      .   S
    Zr148  O269      1.19957      .   S
    Zr24   O270      1.18436      .   S
    Zr168  O270      1.18436      .   S
    Zr24   O271      1.18433      .   S
    Zr136  O271      1.18433      .   S
    Zr30   O272      1.19937      .   S
    Zr166  O272      1.19937      .   S
    Zr30   O273      1.19943      .   S
    Zr146  O273      1.19943  1_455   S
    Zr30   O274      1.18438      .   S
    Zr174  O274      1.18438      .   S
    Zr30   O275      1.18429      .   S
    Zr142  O275      1.18429      .   S
    Zr28   O276      1.19937      .   S
    Zr164  O276      1.19937      .   S
    Zr28   O277      1.19942      .   S
    Zr144  O277      1.19942  1_455   S
    Zr28   O278      1.18436      .   S
    Zr172  O278      1.18436      .   S
    Zr28   O279      1.18433      .   S
    Zr140  O279      1.18433      .   S
    Zr26   O280      1.19937      .   S
    Zr162  O280      1.19937      .   S
    Zr26   O281      1.19958      .   S
    Zr150  O281      1.19958      .   S
    Zr26   O282      1.18438      .   S
    Zr170  O282      1.18438      .   S
    Zr26   O283      1.18429      .   S
    Zr138  O283      1.18429      .   S
    Zr166  O284      0.63398      .   S
    Zr70   O284      0.63398      .   S
    Zr162  O285      0.63404      .   S
    Zr66   O285      0.63404      .   S
    Zr160  O286      0.63404      .   S
    Zr64   O286      0.63404      .   S
    Zr164  O287      0.63399      .   S
    Zr68   O287      0.63399      .   S
    Zr150  O288      0.63400      .   S
    Zr62   O288      0.63400      .   S
    Zr148  O289      0.63401      .   S
    Zr60   O289      0.63401      .   S
    Zr146  O290      0.63400      .   S
    Zr58   O290      0.63400      .   S
    Zr144  O291      0.63401      .   S
    Zr56   O291      0.63401      .   S
    Zr172  O292      0.63251      .   S
    Zr94   O292      0.63251  1_565   S
    Zr168  O293      0.63250      .   S
    Zr90   O293      0.63250  1_565   S
    Zr174  O294      0.63246      .   S
    Zr92   O294      0.63246      .   S
    Zr170  O295      0.63246      .   S
    Zr88   O295      0.63246      .   S
    Zr142  O296      0.63250      .   S
    Zr38   O296      0.63250      .   S
    Zr138  O297      0.63250      .   S
    Zr34   O297      0.63250      .   S
    Zr140  O298      0.63250      .   S
    Zr36   O298      0.63250      .   S
    Zr136  O299      0.63249      .   S
    Zr32   O299      0.63249      .   S
    Zr70   O300      0.77279      .   S
    Zr38   O300      0.77279      .   S
    Zr70   O301      0.63250      .   S
    Zr206  O301      0.63250      .   S
    Zr68   O302      0.77279      .   S
    Zr36   O302      0.77279      .   S
    Zr68   O303      0.63250      .   S
    Zr204  O303      0.63250      .   S
    Zr64   O304      0.77274      .   S
    Zr32   O304      0.77274      .   S
    Zr64   O305      0.63250      .   S
    Zr200  O305      0.63250      .   S
    Zr66   O306      0.77275      .   S
    Zr34   O306      0.77275      .   S
    Zr66   O307      0.63249      .   S
    Zr202  O307      0.63249      .   S
    Zr58   O308      0.77254  1_455   S
    Zr92   O308      0.77254      .   S
    Zr58   O309      0.63250      .   S
    Zr104  O309      0.63250      .   S
    Zr60   O310      0.77281      .   S
    Zr90   O310      0.77281  1_565   S
    Zr60   O311      0.63247  1_545   S
    Zr110  O311      0.63247      .   S
    Zr62   O312      0.77271      .   S
    Zr88   O312      0.77271      .   S
    Zr62   O313      0.63250      .   S
    Zr108  O313      0.63250      .   S
    Zr56   O314      0.77262  1_455   S
    Zr94   O314      0.77262  1_565   S
    Zr56   O315      0.63255  1_545   S
    Zr106  O315      0.63255      .   S
    Zr88   O316      0.63402      .   S
    Zr208  O316      0.63402      .   S
    Zr94   O317      0.63404      .   S
    Zr214  O317      0.63404      .   S
    Zr92   O318      0.63402      .   S
    Zr212  O318      0.63402      .   S
    Zr90   O319      0.63403      .   S
    Zr210  O319      0.63403      .   S
    Zr38   O320      0.63400      .   S
    Zr102  O320      0.63400      .   S
    Zr34   O321      0.63400      .   S
    Zr98   O321      0.63400      .   S
    Zr32   O322      0.63406      .   S
    Zr96   O322      0.63406      .   S
    Zr36   O323      0.63400      .   S
    Zr100  O323      0.63400      .   S
    Zr202  O324      1.18430      .   S
    Zr18   O324      1.18430      .   S
    Zr206  O325      1.18370      .   S
    Zr22   O325      1.18370      .   S
    Zr104  O326      1.18437      .   S
    Zr16   O326      1.18437      .   S
    Zr200  O327      1.18425      .   S
    Zr16   O327      1.18425      .   S
    Zr108  O328      1.18437      .   S
    Zr20   O328      1.18437      .   S
    Zr110  O329      1.18399      .   S
    Zr22   O329      1.18399      .   S
    Zr204  O330      1.18425      .   S
    Zr20   O330      1.18425      .   S
    Zr106  O331      1.18435      .   S
    Zr18   O331      1.18435      .   S
    Zr210  O332      1.19893      .   S
    Zr22   O332      1.19893      .   S
    Zr212  O333      1.19941  1_655   S
    Zr16   O333      1.19941      .   S
    Zr214  O334      1.19940  1_655   S
    Zr18   O334      1.19940      .   S
    Zr208  O335      1.19956      .   S
    Zr20   O335      1.19956      .   S
    Zr98   O336      1.19942      .   S
    Zr18   O336      1.19942      .   S
    Zr102  O337      1.19944      .   S
    Zr22   O337      1.19944      .   S
    Zr100  O338      1.19942      .   S
    Zr20   O338      1.19942      .   S
    Zr96   O339      1.19942      .   S
    Zr16   O339      1.19942      .   S
    Zr22   O340      1.18473      .   S
    Zr218  O340      1.18473      .   S
    Zr22   O341      1.18488      .   S
    Zr126  O341      1.18488      .   S
    Zr20   O342      1.18437      .   S
    Zr216  O342      1.18437      .   S
    Zr20   O343      1.18432      .   S
    Zr124  O343      1.18432      .   S
    Zr18   O344      1.18428  1_455   S
    Zr222  O344      1.18428      .   S
    Zr18   O345      1.18428      .   S
    Zr122  O345      1.18428      .   S
    Zr16   O346      1.18405  1_455   S
    Zr220  O346      1.18405      .   S
    Zr16   O347      1.18431      .   S
    Zr120  O347      1.18431      .   S
    Zr196  O348      0.63401      .   S
    Zr84   O348      0.63401      .   S
    Zr198  O349      0.63402      .   S
    Zr86   O349      0.63402      .   S
    Zr194  O350      0.63401      .   S
    Zr82   O350      0.63401      .   S
    Zr192  O351      0.63401      .   S
    Zr80   O351      0.63401      .   S
    Zr112  O352      0.63403      .   S
    Zr40   O352      0.63403      .   S
    Zr118  O353      0.63403      .   S
    Zr46   O353      0.63403      .   S
    Zr116  O354      0.63398      .   S
    Zr44   O354      0.63398      .   S
    Zr114  O355      0.63383      .   S
    Zr42   O355      0.63383      .   S
    Zr220  O356      0.63292      .   S
    Zr79   O356      0.63292      .   S
    Zr222  O357      0.63268      .   S
    Zr77   O357      0.63268  1_545   S
    Zr218  O358      0.63266      .   S
    Zr73   O358      0.63266  1_545   S
    Zr216  O359      0.63250      .   S
    Zr75   O359      0.63250      .   S
    Zr126  O360      0.63250      .   S
    Zr55   O360      0.63250      .   S
    Zr122  O361      0.63243      .   S
    Zr51   O361      0.63243      .   S
    Zr124  O362      0.63251      .   S
    Zr53   O362      0.63251      .   S
    Zr120  O363      0.63250      .   S
    Zr49   O363      0.63250      .   S
    Zr42   O364      0.77240  1_465   S
    Zr77   O364      0.77240      .   S
    Zr42   O365      0.63284  1_565   S
    Zr153  O365      0.63284      .   S
    Zr86   O366      0.77195      .   S
    Zr51   O366      0.77195  1_455   S
    Zr86   O367      0.63247      .   S
    Zr191  O367      0.63247      .   S
    Zr84   O368      0.77255      .   S
    Zr49   O368      0.77255  1_455   S
    Zr84   O369      0.63251      .   S
    Zr189  O369      0.63251      .   S
    Zr82   O370      0.77267      .   S
    Zr55   O370      0.77267      .   S
    Zr82   O371      0.63251      .   S
    Zr187  O371      0.63251      .   S
    Zr80   O372      0.77273      .   S
    Zr53   O372      0.77273      .   S
    Zr80   O373      0.63251      .   S
    Zr185  O373      0.63251      .   S
    Zr44   O374      0.77269      .   S
    Zr75   O374      0.77269      .   S
    Zr44   O375      0.63253      .   S
    Zr159  O375      0.63253      .   S
    Zr40   O376      0.77251  1_455   S
    Zr79   O376      0.77251      .   S
    Zr40   O377      0.63252      .   S
    Zr155  O377      0.63252      .   S
    Zr46   O378      0.77266  1_565   S
    Zr73   O378      0.77266      .   S
    Zr46   O379      0.63220  1_565   S
    Zr157  O379      0.63220      .   S
    Zr51   O380      0.63460      .   S
    Zr131  O380      0.63460      .   S
    Zr77   O381      0.63402      .   S
    Zr181  O381      0.63402      .   S
    Zr75   O382      0.63402      .   S
    Zr179  O382      0.63402      .   S
    Zr73   O383      0.63402      .   S
    Zr177  O383      0.63402      .   S
    Zr79   O384      0.63401      .   S
    Zr183  O384      0.63401      .   S
    Zr55   O385      0.63403      .   S
    Zr135  O385      0.63403      .   S
    Zr49   O386      0.63379      .   S
    Zr129  O386      0.63379      .   S
    Zr53   O387      0.63405      .   S
    Zr133  O387      0.63405      .   S
    Zr157  O388      1.18453      .   S
    Zr25   O388      1.18453      .   S
    Zr191  O389      1.18456      .   S
    Zr31   O389      1.18456      .   S
    Zr187  O390      1.18436      .   S
    Zr27   O390      1.18436      .   S
    Zr185  O391      1.18432      .   S
    Zr25   O391      1.18432      .   S
    Zr189  O392      1.18433      .   S
    Zr29   O392      1.18433      .   S
    Zr153  O393      1.18425      .   S
    Zr29   O393      1.18425  1_655   S
    Zr159  O394      1.18430      .   S
    Zr27   O394      1.18430      .   S
    Zr155  O395      1.18426      .   S
    Zr31   O395      1.18426  1_655   S
    Zr183  O396      1.36350      .   S
    Zr15   O396      1.36350      .   S
    Zr179  O397      1.36350      .   S
    Zr11   O397      1.36350      .   S
    Zr177  O398      1.36351      .   S
    Zr9    O398      1.36351      .   S
    Zr133  O399      1.36348      .   S
    Zr13   O399      1.36348      .   S
    Zr27   O400      1.19937      .   S
    Zr163  O400      1.19937      .   S
    Zr27   O401      1.19952      .   S
    Zr151  O401      1.19952      .   S
    Zr27   O402      1.18433      .   S
    Zr171  O402      1.18433      .   S
    Zr27   O403      1.18429      .   S
    Zr139  O403      1.18429      .   S
    Zr25   O404      1.19938      .   S
    Zr161  O404      1.19938      .   S
    Zr25   O405      1.19958      .   S
    Zr149  O405      1.19958      .   S
    Zr25   O406      1.18393      .   S
    Zr137  O406      1.18393      .   S
    Zr25   O407      1.18436      .   S
    Zr169  O407      1.18436      .   S
    Zr29   O408      1.19938      .   S
    Zr165  O408      1.19938      .   S
    Zr29   O409      1.19942      .   S
    Zr145  O409      1.19942  1_455   S
    Zr29   O410      1.18427      .   S
    Zr173  O410      1.18427      .   S
    Zr29   O411      1.18426      .   S
    Zr141  O411      1.18426      .   S
    Zr31   O412      1.19937      .   S
    Zr167  O412      1.19937      .   S
    Zr31   O413      1.19936      .   S
    Zr147  O413      1.19936  1_455   S
    Zr31   O414      1.18433      .   S
    Zr175  O414      1.18433      .   S
    Zr31   O415      1.18429      .   S
    Zr143  O415      1.18429      .   S
    Zr165  O416      0.63406      .   S
    Zr69   O416      0.63406      .   S
    Zr161  O417      0.63405      .   S
    Zr65   O417      0.63405      .   S
    Zr163  O418      0.63399      .   S
    Zr67   O418      0.63399      .   S
    Zr167  O419      0.63399      .   S
    Zr71   O419      0.63399      .   S
    Zr151  O420      0.63369      .   S
    Zr63   O420      0.63369      .   S
    Zr147  O421      0.63406      .   S
    Zr59   O421      0.63406      .   S
    Zr149  O422      0.63401      .   S
    Zr61   O422      0.63401      .   S
    Zr145  O423      0.63401      .   S
    Zr57   O423      0.63401      .   S
    Zr173  O424      0.63264      .   S
    Zr95   O424      0.63264  1_565   S
    Zr137  O425      0.63254      .   S
    Zr33   O425      0.63254      .   S
    Zr171  O426      0.63253      .   S
    Zr89   O426      0.63253      .   S
    Zr175  O427      0.63253      .   S
    Zr93   O427      0.63253      .   S
    Zr169  O428      0.63250      .   S
    Zr91   O428      0.63250  1_565   S
    Zr143  O429      0.63251      .   S
    Zr39   O429      0.63251      .   S
    Zr141  O430      0.63250      .   S
    Zr37   O430      0.63250      .   S
    Zr139  O431      0.63245      .   S
    Zr35   O431      0.63245      .   S
    Zr63   O432      0.77257      .   S
    Zr89   O432      0.77257      .   S
    Zr63   O433      0.63257      .   S
    Zr109  O433      0.63257      .   S
    Zr67   O434      0.77243      .   S
    Zr35   O434      0.77243      .   S
    Zr67   O435      0.63250      .   S
    Zr203  O435      0.63250      .   S
    Zr71   O436      0.77279      .   S
    Zr39   O436      0.77279      .   S
    Zr71   O437      0.63250      .   S
    Zr207  O437      0.63250      .   S
    Zr65   O438      0.77274      .   S
    Zr33   O438      0.77274      .   S
    Zr65   O439      0.63250      .   S
    Zr201  O439      0.63250      .   S
    Zr69   O440      0.77273      .   S
    Zr37   O440      0.77273      .   S
    Zr69   O441      0.63250      .   S
    Zr205  O441      0.63250      .   S
    Zr57   O442      0.77263  1_455   S
    Zr95   O442      0.77263  1_565   S
    Zr57   O443      0.63247  1_545   S
    Zr107  O443      0.63247      .   S
    Zr61   O444      0.77281      .   S
    Zr91   O444      0.77281  1_565   S
    Zr61   O445      0.63247  1_545   S
    Zr111  O445      0.63247      .   S
    Zr59   O446      0.77254  1_455   S
    Zr93   O446      0.77254      .   S
    Zr59   O447      0.63250      .   S
    Zr105  O447      0.63250      .   S
    Zr35   O448      0.63438      .   S
    Zr99   O448      0.63438      .   S
    Zr89   O449      0.63402      .   S
    Zr209  O449      0.63402      .   S
    Zr95   O450      0.63398      .   S
    Zr215  O450      0.63398      .   S
    Zr93   O451      0.63402      .   S
    Zr213  O451      0.63402      .   S
    Zr91   O452      0.63403      .   S
    Zr211  O452      0.63403      .   S
    Zr37   O453      0.63400      .   S
    Zr101  O453      0.63400      .   S
    Zr39   O454      0.63400      .   S
    Zr103  O454      0.63400      .   S
    Zr33   O455      0.63393      .   S
    Zr97   O455      0.63393      .   S
    Zr109  O456      1.18460      .   S
    Zr21   O456      1.18460      .   S
    Zr205  O457      1.18426      .   S
    Zr21   O457      1.18426      .   S
    Zr207  O458      1.18423      .   S
    Zr23   O458      1.18423      .   S
    Zr201  O459      1.18379      .   S
    Zr17   O459      1.18379      .   S
    Zr203  O460      1.18423      .   S
    Zr19   O460      1.18423      .   S
    Zr107  O461      1.18436      .   S
    Zr19   O461      1.18436      .   S
    Zr105  O462      1.18400      .   S
    Zr17   O462      1.18400      .   S
    Zr111  O463      1.18435      .   S
    Zr23   O463      1.18435      .   S
    Zr215  O464      1.19940  1_655   S
    Zr19   O464      1.19940      .   S
    Zr213  O465      1.19885  1_655   S
    Zr17   O465      1.19885      .   S
    Zr209  O466      1.19949      .   S
    Zr21   O466      1.19949      .   S
    Zr211  O467      1.19948      .   S
    Zr23   O467      1.19948      .   S
    Zr97   O468      1.19943      .   S
    Zr17   O468      1.19943      .   S
    Zr103  O469      1.19943      .   S
    Zr23   O469      1.19943      .   S
    Zr99   O470      1.19943      .   S
    Zr19   O470      1.19943      .   S
    Zr101  O471      1.19942      .   S
    Zr21   O471      1.19942      .   S
    Zr17   O472      1.18463  1_455   S
    Zr221  O472      1.18463      .   S
    Zr17   O473      1.18483      .   S
    Zr121  O473      1.18483      .   S
    Zr23   O474      1.18437      .   S
    Zr219  O474      1.18437      .   S
    Zr23   O475      1.18433      .   S
    Zr127  O475      1.18433      .   S
    Zr21   O476      1.18436      .   S
    Zr217  O476      1.18436      .   S
    Zr21   O477      1.18430      .   S
    Zr125  O477      1.18430      .   S
    Zr19   O478      1.18432  1_455   S
    Zr223  O478      1.18432      .   S
    Zr19   O479      1.18432      .   S
    Zr123  O479      1.18432      .   S
    Zr1    O480      1.36325      .   S
    Zr193  O480      1.36325      .   S
    Zr193  O481      0.63432      .   S
    Zr81   O481      0.63432      .   S
    Zr195  O482      0.63351      .   S
    Zr83   O482      0.63351      .   S
    Zr199  O483      0.63401      .   S
    Zr87   O483      0.63401      .   S
    Zr197  O484      0.63400      .   S
    Zr85   O484      0.63400      .   S
    Zr119  O485      0.63404      .   S
    Zr47   O485      0.63404      .   S
    Zr117  O486      0.63403      .   S
    Zr45   O486      0.63403      .   S
    Zr115  O487      0.63404      .   S
    Zr43   O487      0.63404      .   S
    Zr113  O488      0.63403      .   S
    Zr41   O488      0.63403      .   S
    Zr96   O489      1.36333      .   S
    Zr0    O489      1.36333      .   S
    Zr97   O490      1.36363      .   S
    Zr1    O490      1.36363      .   S
    Zr98   O491      1.36351      .   S
    Zr2    O491      1.36351      .   S
    Zr99   O492      1.36349      .   S
    Zr3    O492      1.36349      .   S
    Zr100  O493      1.36349      .   S
    Zr4    O493      1.36349      .   S
    Zr101  O494      1.36355      .   S
    Zr5    O494      1.36355      .   S
    Zr102  O495      1.36349      .   S
    Zr6    O495      1.36349      .   S
    Zr103  O496      1.36351      .   S
    Zr7    O496      1.36351      .   S
    Zr112  O497      1.36359      .   S
    Zr0    O497      1.36359      .   S
    Zr112  O498      1.19965      .   S
    Zr16   O498      1.19965      .   S
    Zr113  O499      1.36362      .   S
    Zr1    O499      1.36362      .   S
    Zr113  O500      1.20021      .   S
    Zr17   O500      1.20021      .   S
    Zr114  O501      1.36362      .   S
    Zr2    O501      1.36362      .   S
    Zr114  O502      1.19969      .   S
    Zr18   O502      1.19969      .   S
    Zr115  O503      1.36363      .   S
    Zr3    O503      1.36363      .   S
    Zr115  O504      1.19970      .   S
    Zr19   O504      1.19970      .   S
    Zr116  O505      1.36361      .   S
    Zr4    O505      1.36361      .   S
    Zr116  O506      1.19972      .   S
    Zr20   O506      1.19972      .   S
    Zr117  O507      1.36362      .   S
    Zr5    O507      1.36362      .   S
    Zr117  O508      1.19972      .   S
    Zr21   O508      1.19972      .   S
    Zr118  O509      1.36362      .   S
    Zr6    O509      1.36362      .   S
    Zr118  O510      1.20030      .   S
    Zr22   O510      1.20030      .   S
    Zr119  O511      1.36363      .   S
    Zr7    O511      1.36363      .   S
    Zr119  O512      1.19970      .   S
    Zr23   O512      1.19970      .   S
    Zr128  O513      1.36356      .   S
    Zr8    O513      1.36356      .   S
    Zr128  O514      1.19951  1_455   S
    Zr28   O514      1.19951      .   S
    Zr129  O515      1.36375      .   S
    Zr9    O515      1.36375      .   S
    Zr129  O516      1.19951  1_455   S
    Zr29   O516      1.19951      .   S
    Zr130  O517      1.36353      .   S
    Zr10   O517      1.36353      .   S
    Zr130  O518      1.19952  1_455   S
    Zr30   O518      1.19952      .   S
    Zr131  O519      1.36352      .   S
    Zr11   O519      1.36352      .   S
    Zr131  O520      1.19952  1_455   S
    Zr31   O520      1.19952      .   S
    Zr132  O521      1.36356      .   S
    Zr12   O521      1.36356      .   S
    Zr132  O522      1.19967      .   S
    Zr24   O522      1.19967      .   S
    Zr133  O523      1.19967      .   S
    Zr25   O523      1.19967      .   S
    Zr134  O524      1.36353      .   S
    Zr14   O524      1.36353      .   S
    Zr134  O525      1.19967      .   S
    Zr26   O525      1.19967      .   S
    Zr135  O526      1.36352      .   S
    Zr15   O526      1.36352      .   S
    Zr135  O527      1.19967      .   S
    Zr27   O527      1.19967      .   S
    Zr144  O528      1.36356      .   S
    Zr8    O528      1.36356      .   S
    Zr145  O529      1.36356      .   S
    Zr9    O529      1.36356      .   S
    Zr146  O530      1.36356      .   S
    Zr10   O530      1.36356      .   S
    Zr147  O531      1.36356      .   S
    Zr11   O531      1.36356      .   S
    Zr148  O532      1.36356      .   S
    Zr12   O532      1.36356      .   S
    Zr149  O533      1.36355      .   S
    Zr13   O533      1.36355      .   S
    Zr150  O534      1.36356      .   S
    Zr14   O534      1.36356      .   S
    Zr151  O535      1.36356      .   S
    Zr15   O535      1.36356      .   S
    Zr160  O536      1.36355      .   S
    Zr8    O536      1.36355      .   S
    Zr161  O537      1.36359      .   S
    Zr9    O537      1.36359      .   S
    Zr162  O538      1.36358      .   S
    Zr10   O538      1.36358      .   S
    Zr163  O539      1.36365      .   S
    Zr11   O539      1.36365      .   S
    Zr164  O540      1.36359      .   S
    Zr12   O540      1.36359      .   S
    Zr165  O541      1.36361      .   S
    Zr13   O541      1.36361      .   S
    Zr166  O542      1.36361      .   S
    Zr14   O542      1.36361      .   S
    Zr167  O543      1.36364      .   S
    Zr15   O543      1.36364      .   S
    Zr176  O544      1.19974      .   S
    Zr24   O544      1.19974      .   S
    Zr177  O545      1.19972      .   S
    Zr25   O545      1.19972      .   S
    Zr178  O546      1.19969      .   S
    Zr26   O546      1.19969      .   S
    Zr179  O547      1.19975      .   S
    Zr27   O547      1.19975      .   S
    Zr180  O548      1.19973      .   S
    Zr28   O548      1.19973      .   S
    Zr181  O549      1.36351      .   S
    Zr13   O549      1.36351      .   S
    Zr181  O550      1.19973      .   S
    Zr29   O550      1.19973      .   S
    Zr182  O551      1.20004      .   S
    Zr30   O551      1.20004      .   S
    Zr183  O552      1.19975      .   S
    Zr31   O552      1.19975      .   S
    Zr192  O553      1.36370      .   S
    Zr0    O553      1.36370      .   S
    Zr192  O554      1.19964      .   S
    Zr20   O554      1.19964      .   S
    Zr193  O555      1.19964      .   S
    Zr21   O555      1.19964      .   S
    Zr194  O556      1.36361      .   S
    Zr2    O556      1.36361      .   S
    Zr194  O557      1.19962      .   S
    Zr22   O557      1.19962      .   S
    Zr195  O558      1.36354      .   S
    Zr3    O558      1.36354      .   S
    Zr195  O559      1.19963      .   S
    Zr23   O559      1.19963      .   S
    Zr196  O560      1.36357      .   S
    Zr4    O560      1.36357      .   S
    Zr196  O561      1.19948  1_655   S
    Zr16   O561      1.19948      .   S
    Zr197  O562      1.36358      .   S
    Zr5    O562      1.36358      .   S
    Zr197  O563      1.19948  1_655   S
    Zr17   O563      1.19948      .   S
    Zr198  O564      1.36360      .   S
    Zr6    O564      1.36360      .   S
    Zr198  O565      1.19948  1_655   S
    Zr18   O565      1.19948      .   S
    Zr199  O566      1.36354      .   S
    Zr7    O566      1.36354      .   S
    Zr199  O567      1.19948  1_655   S
    Zr19   O567      1.19948      .   S
    Zr208  O568      1.36360      .   S
    Zr0    O568      1.36360      .   S
    Zr209  O569      1.36358      .   S
    Zr1    O569      1.36358      .   S
    Zr210  O570      1.36358      .   S
    Zr2    O570      1.36358      .   S
    Zr211  O571      1.36358      .   S
    Zr3    O571      1.36358      .   S
    Zr212  O572      1.36359      .   S
    Zr4    O572      1.36359      .   S
    Zr213  O573      1.36358      .   S
    Zr5    O573      1.36358      .   S
    Zr214  O574      1.36358      .   S
    Zr6    O574      1.36358      .   S
    Zr215  O575      1.36358      .   S
    Zr7    O575      1.36358      .   S
