# CIF file generated by openbabel 2.4.90, see http://openbabel.sf.net
data_I
_chemical_name_common ''
_cell_length_a 18.407
_cell_length_b 18.416
_cell_length_c 18.411
_cell_angle_alpha 60.328
_cell_angle_beta 60.251
_cell_angle_gamma 60.283
_space_group_name_H-M_alt 'P 1'
_space_group_name_Hall 'P 1'
loop_
    _symmetry_equiv_pos_as_xyz
    x,y,z
loop_
    _atom_site_label
    _atom_site_type_symbol
    _atom_site_fract_x
    _atom_site_fract_y
    _atom_site_fract_z
    _atom_site_occupancy
    N0      N    0.50001   1.00000   0.99999   1.000
    N1      N    0.00001   0.50000   0.49999   1.000
    N2      N    0.50001   1.00000   0.49999   1.000
    N3      N    0.00001   1.00000   0.49999   1.000
    N4      N    0.50001   0.50000   0.99999   1.000
    N5      N    0.00001   0.50000   0.99999   1.000
    Zr6     Zr   0.25000   0.24996   0.24997   1.000
    Zr7     Zr   0.75002   0.75003   0.75001   1.000
    O8      O    0.83249   0.66749   0.66746   1.000
    O9      O    0.16753   0.33250   0.33253   1.000
    O10     O    0.66743   0.83251   0.66745   1.000
    O11     O    0.33259   0.16749   0.33254   1.000
    O12     O    0.83260   0.83258   0.66756   1.000
    O13     O    0.16742   0.16742   0.33243   1.000
    O14     O    0.66743   0.66748   0.83249   1.000
    O15     O    0.33259   0.33251   0.16750   1.000
    O16     O    0.83260   0.66757   0.83258   1.000
    O17     O    0.66757   0.83257   0.83257   1.000
    O18     O    0.16742   0.33243   0.16740   1.000
    O19     O    0.33245   0.16743   0.16742   1.000
loop_
    _geom_bond_atom_site_label_1
    _geom_bond_atom_site_label_2
    _geom_bond_distance
    _geom_bond_site_symmetry_2
    _ccdc_geom_bond_type
    N1     O8        4.36807  1_455   S
    Zr7    O8        2.15299      .   S
    N1     O9        4.36799      .   S
    Zr6    O9        2.15295      .   S
    N2     O10       4.37106      .   S
    Zr7    O10       2.15562      .   S
    N2     O11       4.37098  1_565   S
    Zr6    O11       2.15562      .   S
    N3     O12       4.36895  1_455   S
    Zr7    O12       2.15454      .   S
    N3     O13       4.36895  1_565   S
    Zr6    O13       2.15454      .   S
    N4     O14       4.36994      .   S
    Zr7    O14       2.15461      .   S
    N4     O15       4.36994  1_556   S
    Zr6    O15       2.15461      .   S
    Zr7    O16       2.15561      .   S
    N5     O16       4.37028  1_455   S
    Zr7    O17       2.15282      .   S
    N0     O17       4.36669      .   S
    Zr6    O18       2.15564      .   S
    N5     O18       4.37035  1_556   S
    Zr6    O19       2.15284      .   S
    N0     O19       4.36678  1_566   S
