# CIF file generated by openbabel 2.4.90, see http://openbabel.sf.net
data_I
_chemical_name_common ''
_cell_length_a 18.407
_cell_length_b 18.416
_cell_length_c 18.411
_cell_angle_alpha 60.328
_cell_angle_beta 60.251
_cell_angle_gamma 60.283
_space_group_name_H-M_alt 'P 1'
_space_group_name_Hall 'P 1'
loop_
    _symmetry_equiv_pos_as_xyz
    x,y,z
loop_
    _atom_site_label
    _atom_site_type_symbol
    _atom_site_fract_x
    _atom_site_fract_y
    _atom_site_fract_z
    _atom_site_occupancy
    C0      C    0.29404   0.29360   0.29378   1.000
    C1      C    0.29315   0.29323   0.11968   1.000
    C2      C    0.29319   0.11978   0.29325   1.000
    C3      C    0.11958   0.29314   0.29310   1.000
    C4      C    0.70598   0.70639   0.70621   1.000
    C5      C    0.70687   0.70677   0.88031   1.000
    C6      C    0.88044   0.70685   0.70687   1.000
    C7      C    0.70683   0.88021   0.70674   1.000
    C8      C    0.16431   0.45248   0.45252   1.000
    C9      C    0.45177   0.16413   0.93200   1.000
    C10     C    0.45165   0.93216   0.16422   1.000
    C11     C    0.93224   0.45125   0.45120   1.000
    C12     C    0.16434   0.45166   0.93195   1.000
    C13     C    0.45119   0.93239   0.45116   1.000
    C14     C    0.45273   0.16410   0.45260   1.000
    C15     C    0.93180   0.45178   0.16422   1.000
    C16     C    0.16435   0.93212   0.45159   1.000
    C17     C    0.45267   0.45255   0.16419   1.000
    C18     C    0.45125   0.45120   0.93230   1.000
    C19     C    0.93180   0.16412   0.45184   1.000
    C20     C    0.54729   0.83590   0.54732   1.000
    C21     C    0.83568   0.54834   0.06804   1.000
    C22     C    0.06822   0.54822   0.83577   1.000
    C23     C    0.54883   0.06760   0.54883   1.000
    C24     C    0.54824   0.83587   0.06799   1.000
    C25     C    0.06778   0.54874   0.54872   1.000
    C26     C    0.83571   0.54752   0.54747   1.000
    C27     C    0.54837   0.06784   0.83577   1.000
    C28     C    0.06821   0.83587   0.54815   1.000
    C29     C    0.54735   0.54744   0.83580   1.000
    C30     C    0.54877   0.54879   0.06769   1.000
    C31     C    0.83568   0.06787   0.54840   1.000
    C32     C    0.09233   0.47367   0.47370   1.000
    C33     C    0.47329   0.09223   0.96100   1.000
    C34     C    0.47323   0.96108   0.09228   1.000
    C35     C    0.96117   0.47298   0.47300   1.000
    C36     C    0.09235   0.47322   0.96098   1.000
    C37     C    0.47296   0.96125   0.47293   1.000
    C38     C    0.47382   0.09221   0.47377   1.000
    C39     C    0.96091   0.47328   0.09228   1.000
    C40     C    0.09235   0.96107   0.47318   1.000
    C41     C    0.47379   0.47371   0.09226   1.000
    C42     C    0.47300   0.47296   0.96120   1.000
    C43     C    0.96091   0.09223   0.47331   1.000
    C44     C    0.52620   0.90778   0.52620   1.000
    C45     C    0.90767   0.52677   0.03900   1.000
    C46     C    0.03911   0.52671   0.90771   1.000
    C47     C    0.52706   0.03875   0.52706   1.000
    C48     C    0.52672   0.90776   0.03899   1.000
    C49     C    0.03885   0.52700   0.52699   1.000
    C50     C    0.90769   0.52632   0.52629   1.000
    C51     C    0.52679   0.03892   0.90771   1.000
    C52     C    0.03911   0.90777   0.52667   1.000
    C53     C    0.52623   0.52628   0.90773   1.000
    C54     C    0.52703   0.52703   0.03879   1.000
    C55     C    0.90767   0.03892   0.52680   1.000
    C56     C    0.11130   0.38893   0.38901   1.000
    C57     C    0.05383   0.44631   0.44635   1.000
    C58     C    0.38863   0.11097   0.11092   1.000
    C59     C    0.44615   0.05364   0.05360   1.000
    C60     C    0.11086   0.38860   0.11089   1.000
    C61     C    0.05358   0.44613   0.05360   1.000
    C62     C    0.38913   0.11125   0.38903   1.000
    C63     C    0.44642   0.05382   0.44635   1.000
    C64     C    0.11086   0.11095   0.38861   1.000
    C65     C    0.05358   0.05364   0.44614   1.000
    C66     C    0.38913   0.38895   0.11126   1.000
    C67     C    0.44643   0.44630   0.05381   1.000
    C68     C    0.61089   0.88874   0.61096   1.000
    C69     C    0.55360   0.94617   0.55364   1.000
    C70     C    0.88916   0.61140   0.88910   1.000
    C71     C    0.94644   0.55386   0.94630   1.000
    C72     C    0.61138   0.88902   0.88907   1.000
    C73     C    0.55387   0.94635   0.94630   1.000
    C74     C    0.88872   0.61106   0.61098   1.000
    C75     C    0.94619   0.55369   0.55363   1.000
    C76     C    0.88916   0.88904   0.61138   1.000
    C77     C    0.94644   0.94635   0.55385   1.000
    C78     C    0.61090   0.61105   0.88873   1.000
    C79     C    0.55359   0.55370   0.94617   1.000
    C80     C    0.25005   0.25006   0.25005   1.000
    C81     C    0.74997   0.74994   0.74994   1.000
    C82     C    0.19509   0.36699   0.36721   1.000
    C83     C    0.36635   0.19463   0.07141   1.000
    C84     C    0.36647   0.07151   0.19463   1.000
    C85     C    0.07171   0.36664   0.36663   1.000
    C86     C    0.19465   0.36646   0.07134   1.000
    C87     C    0.36668   0.07175   0.36673   1.000
    C88     C    0.36742   0.19495   0.36711   1.000
    C89     C    0.07127   0.36628   0.19462   1.000
    C90     C    0.19464   0.07146   0.36653   1.000
    C91     C    0.36747   0.36693   0.19500   1.000
    C92     C    0.36665   0.36671   0.07171   1.000
    C93     C    0.07128   0.19462   0.36625   1.000
    C94     C    0.63260   0.80504   0.63288   1.000
    C95     C    0.80537   0.63354   0.92865   1.000
    C96     C    0.92875   0.63371   0.80537   1.000
    C97     C    0.63335   0.92824   0.63326   1.000
    C98     C    0.63366   0.80536   0.92858   1.000
    C99     C    0.92831   0.63335   0.63336   1.000
    C100    C    0.80493   0.63301   0.63278   1.000
    C101    C    0.63355   0.92849   0.80536   1.000
    C102    C    0.92874   0.80537   0.63373   1.000
    C103    C    0.63255   0.63307   0.80499   1.000
    C104    C    0.63337   0.63329   0.92828   1.000
    C105    C    0.80538   0.92853   0.63346   1.000
    O106    O    0.53790   0.53791   0.05324   1.000
    O107    O    0.50041   0.50037   0.06552   1.000
    O108    O    0.54031   0.54036   0.99248   1.000
    O109    O    0.53748   0.87181   0.05349   1.000
    O110    O    0.49997   0.93442   0.06563   1.000
    O111    O    0.54030   0.92706   0.99265   1.000
    O112    O    0.87167   0.53755   0.05352   1.000
    O113    O    0.93429   0.50003   0.06564   1.000
    O114    O    0.92706   0.54032   0.99265   1.000
    O115    O    0.00724   0.45971   0.07294   1.000
    O116    O    0.08222   0.41736   0.08225   1.000
    O117    O    0.07296   0.45968   0.00729   1.000
    O118    O    0.45969   0.00736   0.07294   1.000
    O119    O    0.41739   0.08231   0.08226   1.000
    O120    O    0.45972   0.07294   0.00730   1.000
    O121    O    0.46011   0.46001   0.07304   1.000
    O122    O    0.41778   0.41762   0.08253   1.000
    O123    O    0.45971   0.45963   0.00751   1.000
    O124    O    0.15275   0.37753   0.09112   1.000
    O125    O    0.24390   0.32984   0.09551   1.000
    O126    O    0.37749   0.15280   0.09117   1.000
    O127    O    0.32975   0.24393   0.09554   1.000
    O128    O    0.37789   0.37783   0.09148   1.000
    O129    O    0.32990   0.32997   0.09569   1.000
    O130    O    0.46323   0.46313   0.12823   1.000
    O131    O    0.46244   0.94662   0.12825   1.000
    O132    O    0.94635   0.46253   0.12825   1.000
    O133    O    0.09106   0.37744   0.15276   1.000
    O134    O    0.37755   0.09124   0.15277   1.000
    O135    O    0.37830   0.37794   0.15313   1.000
    O136    O    0.27160   0.27164   0.18487   1.000
    O137    O    0.09542   0.32971   0.24386   1.000
    O138    O    0.32983   0.09565   0.24394   1.000
    O139    O    0.33075   0.33026   0.24439   1.000
    O140    O    0.27162   0.18492   0.27165   1.000
    O141    O    0.09543   0.24388   0.32968   1.000
    O142    O    0.09565   0.32989   0.32987   1.000
    O143    O    0.24392   0.09562   0.32989   1.000
    O144    O    0.32994   0.09577   0.32999   1.000
    O145    O    0.33073   0.24428   0.33044   1.000
    O146    O    0.24457   0.33030   0.33049   1.000
    O147    O    0.09107   0.15279   0.37743   1.000
    O148    O    0.15275   0.09121   0.37757   1.000
    O149    O    0.09151   0.37778   0.37782   1.000
    O150    O    0.37790   0.09150   0.37788   1.000
    O151    O    0.37827   0.15310   0.37807   1.000
    O152    O    0.15320   0.37796   0.37811   1.000
    O153    O    0.08222   0.08230   0.41737   1.000
    O154    O    0.08256   0.41762   0.41768   1.000
    O155    O    0.41777   0.08254   0.41769   1.000
    O156    O    0.07296   0.00736   0.45966   1.000
    O157    O    0.00724   0.07293   0.45972   1.000
    O158    O    0.00750   0.45965   0.45967   1.000
    O159    O    0.07308   0.45999   0.46003   1.000
    O160    O    0.45969   0.00753   0.45964   1.000
    O161    O    0.46012   0.07302   0.46006   1.000
    O162    O    0.46208   0.94682   0.46205   1.000
    O163    O    0.94671   0.46212   0.46210   1.000
    O164    O    0.12835   0.94660   0.46238   1.000
    O165    O    0.94636   0.12818   0.46258   1.000
    O166    O    0.12832   0.46307   0.46311   1.000
    O167    O    0.46328   0.12816   0.46319   1.000
    O168    O    0.49958   0.93451   0.49957   1.000
    O169    O    0.93443   0.49965   0.49965   1.000
    O170    O    0.06573   0.93442   0.49993   1.000
    O171    O    0.93429   0.06558   0.50006   1.000
    O172    O    0.06559   0.50034   0.50035   1.000
    O173    O    0.50044   0.06548   0.50041   1.000
    O174    O    0.53674   0.87184   0.53676   1.000
    O175    O    0.53990   0.92698   0.53992   1.000
    O176    O    0.87170   0.53692   0.53688   1.000
    O177    O    0.92694   0.54001   0.53996   1.000
    O178    O    0.05366   0.87182   0.53741   1.000
    O179    O    0.99278   0.92706   0.54026   1.000
    O180    O    0.87167   0.05340   0.53760   1.000
    O181    O    0.92706   0.99264   0.54033   1.000
    O182    O    0.05331   0.53787   0.53785   1.000
    O183    O    0.99252   0.54035   0.54031   1.000
    O184    O    0.53795   0.05318   0.53795   1.000
    O185    O    0.54033   0.99246   0.54035   1.000
    O186    O    0.91745   0.58238   0.58230   1.000
    O187    O    0.58225   0.91746   0.58230   1.000
    O188    O    0.91780   0.91770   0.58261   1.000
    O189    O    0.62175   0.84689   0.62192   1.000
    O190    O    0.62212   0.90849   0.62211   1.000
    O191    O    0.84682   0.62203   0.62188   1.000
    O192    O    0.90851   0.62221   0.62217   1.000
    O193    O    0.84727   0.90879   0.62242   1.000
    O194    O    0.90895   0.84721   0.62255   1.000
    O195    O    0.75545   0.66970   0.66950   1.000
    O196    O    0.66929   0.75572   0.66955   1.000
    O197    O    0.67009   0.90423   0.67000   1.000
    O198    O    0.90437   0.67010   0.67012   1.000
    O199    O    0.75610   0.90437   0.67010   1.000
    O200    O    0.90459   0.75611   0.67030   1.000
    O201    O    0.66927   0.66973   0.75560   1.000
    O202    O    0.72840   0.81507   0.72834   1.000
    O203    O    0.67019   0.90435   0.75605   1.000
    O204    O    0.90459   0.67028   0.75612   1.000
    O205    O    0.72842   0.72835   0.81512   1.000
    O206    O    0.62172   0.62206   0.84686   1.000
    O207    O    0.62247   0.90875   0.84722   1.000
    O208    O    0.90896   0.62256   0.84724   1.000
    O209    O    0.05367   0.53746   0.87174   1.000
    O210    O    0.53758   0.05338   0.87174   1.000
    O211    O    0.53679   0.53686   0.87177   1.000
    O212    O    0.67012   0.67003   0.90430   1.000
    O213    O    0.67027   0.75607   0.90445   1.000
    O214    O    0.75612   0.67015   0.90448   1.000
    O215    O    0.62213   0.62217   0.90851   1.000
    O216    O    0.58224   0.58237   0.91745   1.000
    O217    O    0.62252   0.84719   0.90882   1.000
    O218    O    0.58263   0.91769   0.91769   1.000
    O219    O    0.84727   0.62247   0.90887   1.000
    O220    O    0.91780   0.58263   0.91770   1.000
    O221    O    0.54033   0.99263   0.92701   1.000
    O222    O    0.50004   0.06557   0.93435   1.000
    O223    O    0.99278   0.54029   0.92701   1.000
    O224    O    0.06573   0.49997   0.93434   1.000
    O225    O    0.53991   0.53999   0.92695   1.000
    O226    O    0.49961   0.49962   0.93446   1.000
    O227    O    0.12835   0.46244   0.94647   1.000
    O228    O    0.46253   0.12818   0.94650   1.000
    O229    O    0.46212   0.46208   0.94675   1.000
    O230    O    0.27204   0.27183   0.27192   1.000
    O231    O    0.18482   0.27160   0.27158   1.000
    O232    O    0.72797   0.72816   0.72808   1.000
    O233    O    0.81520   0.72839   0.72840   1.000
loop_
    _geom_bond_atom_site_label_1
    _geom_bond_atom_site_label_2
    _geom_bond_distance
    _geom_bond_site_symmetry_2
    _ccdc_geom_bond_type
    C54    O106      0.54432      .   S
    C30    O106      0.54432      .   S
    C54    O107      0.69523      .   S
    C41    O107      0.69523      .   S
    C54    O108      0.70171  1_554   S
    C79    O108      0.70171      .   S
    C48    O109      0.54429      .   S
    C24    O109      0.54429      .   S
    C48    O110      0.69512      .   S
    C34    O110      0.69512      .   S
    C48    O111      0.70215  1_554   S
    C73    O111      0.70215      .   S
    C45    O112      0.54430      .   S
    C21    O112      0.54430      .   S
    C45    O113      0.69519      .   S
    C39    O113      0.69519      .   S
    C45    O114      0.70219  1_554   S
    C71    O114      0.70219      .   S
    C61    O115      0.70147      .   S
    C39    O115      0.70147  1_655   S
    C61    O116      0.74774      .   S
    C60    O116      0.74774      .   S
    C61    O117      0.70161      .   S
    C36    O117      0.70161  1_556   S
    C59    O118      0.70167      .   S
    C34    O118      0.70167  1_565   S
    C59    O119      0.74758      .   S
    C58    O119      0.74758      .   S
    C59    O120      0.70149      .   S
    C33    O120      0.70149  1_556   S
    C67    O121      0.70163      .   S
    C41    O121      0.70163      .   S
    C67    O122      0.74803      .   S
    C66    O122      0.74803      .   S
    C67    O123      0.70163      .   S
    C42    O123      0.70163  1_556   S
    C86    O124      0.63856      .   S
    C60    O124      0.63856      .   S
    C86    O125      0.98581      .   S
    C1     O125      0.98581      .   S
    C83    O126      0.63854      .   S
    C58    O126      0.63854      .   S
    C83    O127      0.98566      .   S
    C1     O127      0.98566      .   S
    C92    O128      0.63857      .   S
    C66    O128      0.63857      .   S
    C92    O129      0.98587      .   S
    C1     O129      0.98587      .   S
    C41    O130      0.54431      .   S
    C17    O130      0.54431      .   S
    C34    O131      0.54427      .   S
    C10    O131      0.54427      .   S
    C39    O132      0.54428      .   S
    C15    O132      0.54428      .   S
    C60    O133      0.63859      .   S
    C89    O133      0.63859      .   S
    C58    O134      0.63854      .   S
    C84    O134      0.63854      .   S
    C66    O135      0.63868      .   S
    C91    O135      0.63868      .   S
    C1     O136      0.98348      .   S
    C80    O136      0.98348      .   S
    C89    O137      0.98582      .   S
    C3     O137      0.98582      .   S
    C84    O138      0.98556      .   S
    C2     O138      0.98556      .   S
    C91    O139      0.98696      .   S
    C0     O139      0.98696      .   S
    C80    O140      0.98335      .   S
    C2     O140      0.98335      .   S
    C3     O141      0.98588      .   S
    C93    O141      0.98588      .   S
    C3     O142      0.98605      .   S
    C85    O142      0.98605      .   S
    C2     O143      0.98563      .   S
    C90    O143      0.98563      .   S
    C2     O144      0.98578      .   S
    C87    O144      0.98578      .   S
    C0     O145      0.98691      .   S
    C88    O145      0.98691      .   S
    C0     O146      0.98696      .   S
    C82    O146      0.98696      .   S
    C93    O147      0.63857      .   S
    C64    O147      0.63857      .   S
    C90    O148      0.63854      .   S
    C64    O148      0.63854      .   S
    C85    O149      0.63854      .   S
    C56    O149      0.63854      .   S
    C87    O150      0.63851      .   S
    C62    O150      0.63851      .   S
    C88    O151      0.63872      .   S
    C62    O151      0.63872      .   S
    C82    O152      0.63870      .   S
    C56    O152      0.63870      .   S
    C64    O153      0.74766      .   S
    C65    O153      0.74766      .   S
    C56    O154      0.74803      .   S
    C57    O154      0.74803      .   S
    C62    O155      0.74801      .   S
    C63    O155      0.74801      .   S
    C65    O156      0.70170      .   S
    C40    O156      0.70170  1_565   S
    C65    O157      0.70144      .   S
    C43    O157      0.70144  1_655   S
    C57    O158      0.70153      .   S
    C35    O158      0.70153  1_655   S
    C57    O159      0.70159      .   S
    C32    O159      0.70159      .   S
    C63    O160      0.70183      .   S
    C37    O160      0.70183  1_565   S
    C63    O161      0.70157      .   S
    C38    O161      0.70157      .   S
    C13    O162      0.54426      .   S
    C37    O162      0.54426      .   S
    C11    O163      0.54481      .   S
    C35    O163      0.54481      .   S
    C16    O164      0.54430      .   S
    C40    O164      0.54430      .   S
    C19    O165      0.54430      .   S
    C43    O165      0.54430      .   S
    C8     O166      0.54431      .   S
    C32    O166      0.54431      .   S
    C14    O167      0.54428      .   S
    C38    O167      0.54428      .   S
    C37    O168      0.69512      .   S
    C44    O168      0.69512      .   S
    C35    O169      0.69524      .   S
    C50    O169      0.69524      .   S
    C40    O170      0.69511      .   S
    C52    O170      0.69511      .   S
    C43    O171      0.69512      .   S
    C55    O171      0.69512      .   S
    C32    O172      0.69524      .   S
    C49    O172      0.69524      .   S
    C38    O173      0.69525      .   S
    C47    O173      0.69525      .   S
    C44    O174      0.54431      .   S
    C20    O174      0.54431      .   S
    C44    O175      0.70168      .   S
    C69    O175      0.70168      .   S
    C50    O176      0.54431      .   S
    C26    O176      0.54431      .   S
    C50    O177      0.70161      .   S
    C75    O177      0.70161      .   S
    C52    O178      0.54430      .   S
    C28    O178      0.54430      .   S
    C52    O179      0.70144  1_455   S
    C77    O179      0.70144      .   S
    C55    O180      0.54429      .   S
    C31    O180      0.54429      .   S
    C55    O181      0.70171  1_545   S
    C77    O181      0.70171      .   S
    C49    O182      0.54432      .   S
    C25    O182      0.54432      .   S
    C49    O183      0.70154  1_455   S
    C75    O183      0.70154      .   S
    C47    O184      0.54425      .   S
    C23    O184      0.54425      .   S
    C47    O185      0.70184  1_545   S
    C69    O185      0.70184      .   S
    C75    O186      0.74801      .   S
    C74    O186      0.74801      .   S
    C69    O187      0.74805      .   S
    C68    O187      0.74805      .   S
    C77    O188      0.74766      .   S
    C76    O188      0.74766      .   S
    C68    O189      0.63873      .   S
    C94    O189      0.63873      .   S
    C68    O190      0.63851      .   S
    C97    O190      0.63851      .   S
    C74    O191      0.63868      .   S
    C100   O191      0.63868      .   S
    C74    O192      0.63856      .   S
    C99    O192      0.63856      .   S
    C76    O193      0.63854      .   S
    C105   O193      0.63854      .   S
    C76    O194      0.63857      .   S
    C102   O194      0.63857      .   S
    C100   O195      0.98697      .   S
    C4     O195      0.98697      .   S
    C94    O196      0.98692      .   S
    C4     O196      0.98692      .   S
    C97    O197      0.98576      .   S
    C7     O197      0.98576      .   S
    C99    O198      0.98593      .   S
    C6     O198      0.98593      .   S
    C105   O199      0.98562      .   S
    C7     O199      0.98562      .   S
    C102   O200      0.98588      .   S
    C6     O200      0.98588      .   S
    C4     O201      0.98696      .   S
    C103   O201      0.98696      .   S
    C7     O202      0.98335      .   S
    C81    O202      0.98335      .   S
    C7     O203      0.98556      .   S
    C101   O203      0.98556      .   S
    C6     O204      0.98597      .   S
    C96    O204      0.98597      .   S
    C81    O205      0.98348      .   S
    C5     O205      0.98348      .   S
    C103   O206      0.63868      .   S
    C78    O206      0.63868      .   S
    C101   O207      0.63854      .   S
    C72    O207      0.63854      .   S
    C96    O208      0.63859      .   S
    C70    O208      0.63859      .   S
    C22    O209      0.54428      .   S
    C46    O209      0.54428      .   S
    C27    O210      0.54427      .   S
    C51    O210      0.54427      .   S
    C29    O211      0.54431      .   S
    C53    O211      0.54431      .   S
    C5     O212      0.98587      .   S
    C104   O212      0.98587      .   S
    C5     O213      0.98565      .   S
    C98    O213      0.98565      .   S
    C5     O214      0.98581      .   S
    C95    O214      0.98581      .   S
    C78    O215      0.63856      .   S
    C104   O215      0.63856      .   S
    C78    O216      0.74804      .   S
    C79    O216      0.74804      .   S
    C72    O217      0.63854      .   S
    C98    O217      0.63854      .   S
    C72    O218      0.74698      .   S
    C73    O218      0.74698      .   S
    C70    O219      0.63857      .   S
    C95    O219      0.63857      .   S
    C70    O220      0.74715      .   S
    C71    O220      0.74715      .   S
    C51    O221      0.70161  1_545   S
    C73    O221      0.70161      .   S
    C51    O222      0.69512      .   S
    C33    O222      0.69512      .   S
    C46    O223      0.70140  1_455   S
    C71    O223      0.70140      .   S
    C46    O224      0.69513      .   S
    C36    O224      0.69513      .   S
    C53    O225      0.70155      .   S
    C79    O225      0.70155      .   S
    C53    O226      0.69523      .   S
    C42    O226      0.69523      .   S
    C12    O227      0.54429      .   S
    C36    O227      0.54429      .   S
    C9     O228      0.54429      .   S
    C33    O228      0.54429      .   S
    C18    O229      0.54432      .   S
    C42    O229      0.54432      .   S
    C80    O230      0.98449      .   S
    C0     O230      0.98449      .   S
    C80    O231      0.98355      .   S
    C3     O231      0.98355      .   S
    C81    O232      0.98449      .   S
    C4     O232      0.98449      .   S
    C81    O233      0.98355      .   S
    C6     O233      0.98355      .   S
