# CIF file generated by openbabel 2.4.90, see http://openbabel.sf.net
data_I
_chemical_name_common ''
_cell_length_a 18.407
_cell_length_b 18.416
_cell_length_c 18.411
_cell_angle_alpha 60.328
_cell_angle_beta 60.251
_cell_angle_gamma 60.283
_space_group_name_H-M_alt 'P 1'
_space_group_name_Hall 'P 1'
loop_
    _symmetry_equiv_pos_as_xyz
    x,y,z
loop_
    _atom_site_label
    _atom_site_type_symbol
    _atom_site_fract_x
    _atom_site_fract_y
    _atom_site_fract_z
    _atom_site_occupancy
    Zr0     Zr   0.29404   0.29360   0.29378   1.000
    Zr1     Zr   0.29315   0.29323   0.11968   1.000
    Zr2     Zr   0.29319   0.11978   0.29325   1.000
    Zr3     Zr   0.11958   0.29314   0.29310   1.000
    Zr4     Zr   0.70598   0.70639   0.70621   1.000
    Zr5     Zr   0.70687   0.70677   0.88031   1.000
    Zr6     Zr   0.88044   0.70685   0.70687   1.000
    Zr7     Zr   0.70683   0.88021   0.70674   1.000
    Zr8     Zr   0.25005   0.25006   0.25005   1.000
    Zr9     Zr   0.74997   0.74994   0.74994   1.000
    O10     O    0.27160   0.27164   0.18487   1.000
    O11     O    0.27162   0.18492   0.27165   1.000
    O12     O    0.72840   0.81507   0.72834   1.000
    O13     O    0.72842   0.72835   0.81512   1.000
    O14     O    0.27204   0.27183   0.27192   1.000
    O15     O    0.18482   0.27160   0.27158   1.000
    O16     O    0.72797   0.72816   0.72808   1.000
    O17     O    0.81520   0.72839   0.72840   1.000
    N18     N    0.50001   1.00000   0.99999   1.000
    O19     O    0.58514   0.87803   0.95222   1.000
    O20     O    0.58510   0.95217   0.87802   1.000
    O21     O    0.41488   0.12196   0.04777   1.000
    O22     O    0.41492   0.04782   0.12196   1.000
    N23     N    0.00001   0.50000   0.49999   1.000
    O24     O    0.95219   0.58505   0.58505   1.000
    O25     O    0.87773   0.58485   0.58474   1.000
    O26     O    0.12229   0.41515   0.41524   1.000
    O27     O    0.04783   0.41494   0.41493   1.000
    N28     N    0.50001   1.00000   0.49999   1.000
    O29     O    0.58505   0.95211   0.58499   1.000
    O30     O    0.58465   0.87786   0.58477   1.000
    O31     O    0.41497   0.04788   0.41499   1.000
    O32     O    0.41537   0.12214   0.41522   1.000
    N33     N    0.00001   1.00000   0.49999   1.000
    O34     O    0.95230   0.87806   0.58515   1.000
    O35     O    0.87806   0.95218   0.58505   1.000
    O36     O    0.12196   0.04781   0.41494   1.000
    O37     O    0.04772   0.12194   0.41483   1.000
    N38     N    0.50001   0.50000   0.99999   1.000
    O39     O    0.58464   0.58486   0.87780   1.000
    O40     O    0.58506   0.58501   0.95214   1.000
    O41     O    0.41538   0.41513   0.12219   1.000
    O42     O    0.41496   0.41498   0.04784   1.000
    N43     N    0.00001   0.50000   0.99999   1.000
    O44     O    0.87807   0.58507   0.95223   1.000
    O45     O    0.95230   0.58514   0.87805   1.000
    O46     O    0.12195   0.41492   0.04775   1.000
    O47     O    0.04772   0.41485   0.12192   1.000
loop_
    _geom_bond_atom_site_label_1
    _geom_bond_atom_site_label_2
    _geom_bond_distance
    _geom_bond_site_symmetry_2
    _ccdc_geom_bond_type
    Zr1    O10       0.98348      .   S
    Zr8    O10       0.98348      .   S
    Zr8    O11       0.98335      .   S
    Zr2    O11       0.98335      .   S
    Zr7    O12       0.98335      .   S
    Zr9    O12       0.98335      .   S
    Zr9    O13       0.98348      .   S
    Zr5    O13       0.98348      .   S
    Zr8    O14       0.98449      .   S
    Zr0    O14       0.98449      .   S
    Zr8    O15       0.98355      .   S
    Zr3    O15       0.98355      .   S
    Zr9    O16       0.98449      .   S
    Zr4    O16       0.98449      .   S
    Zr9    O17       0.98355      .   S
    Zr6    O17       0.98355      .   S
    N18    O19       2.31793      .   S
    Zr5    O19       3.30224      .   S
    N18    O20       2.31765      .   S
    Zr7    O20       3.30188      .   S
    N18    O21       2.31798  1_566   S
    Zr1    O21       3.30230      .   S
    N18    O22       2.31774  1_566   S
    Zr2    O22       3.30197      .   S
    N23    O24       2.31830  1_455   S
    Zr6    O24       3.30306      .   S
    N23    O25       2.32041  1_455   S
    Zr4    O25       3.30607      .   S
    N23    O26       2.32035      .   S
    Zr0    O26       3.30600      .   S
    N23    O27       2.31829      .   S
    Zr3    O27       3.30316      .   S
    N28    O29       2.31804      .   S
    Zr7    O29       3.30258      .   S
    N28    O30       2.32076      .   S
    Zr4    O30       3.30629      .   S
    N28    O31       2.31795  1_565   S
    Zr2    O31       3.30251      .   S
    N28    O32       2.32070  1_565   S
    Zr0    O32       3.30623      .   S
    N33    O34       2.31851  1_455   S
    Zr6    O34       3.30301      .   S
    N33    O35       2.31789  1_455   S
    Zr7    O35       3.30217      .   S
    N33    O36       2.31789  1_565   S
    Zr2    O36       3.30217      .   S
    N33    O37       2.31851  1_565   S
    Zr3    O37       3.30301      .   S
    N38    O39       2.32062      .   S
    Zr4    O39       3.30622      .   S
    N38    O40       2.31822      .   S
    Zr5    O40       3.30288      .   S
    N38    O41       2.32062  1_556   S
    Zr0    O41       3.30622      .   S
    N38    O42       2.31822  1_556   S
    Zr1    O42       3.30288      .   S
    N43    O44       2.31821  1_455   S
    Zr5    O44       3.30265      .   S
    N43    O45       2.31855  1_455   S
    Zr6    O45       3.30314      .   S
    N43    O46       2.31826  1_556   S
    Zr1    O46       3.30270      .   S
    N43    O47       2.31857  1_556   S
    Zr3    O47       3.30300      .   S
