# CIF file generated by openbabel 2.4.90, see http://openbabel.sf.net
data_I
_chemical_name_common ''
_cell_length_a 18.407
_cell_length_b 18.416
_cell_length_c 18.411
_cell_angle_alpha 60.328
_cell_angle_beta 60.251
_cell_angle_gamma 60.283
_space_group_name_H-M_alt 'P 1'
_space_group_name_Hall 'P 1'
loop_
    _symmetry_equiv_pos_as_xyz
    x,y,z
loop_
    _atom_site_label
    _atom_site_type_symbol
    _atom_site_fract_x
    _atom_site_fract_y
    _atom_site_fract_z
    _atom_site_occupancy
    N0      N    0.50001   1.00000   0.99999   1.000
    N1      N    0.00001   0.50000   0.49999   1.000
    N2      N    0.50001   1.00000   0.49999   1.000
    N3      N    0.00001   1.00000   0.49999   1.000
    N4      N    0.50001   0.50000   0.99999   1.000
    N5      N    0.00001   0.50000   0.99999   1.000
    Zr6     Zr   0.25000   0.24996   0.24997   1.000
    O7      O    0.14886   0.18595   0.33240   1.000
    O8      O    0.14886   0.33241   0.18595   1.000
    O9      O    0.14892   0.33245   0.33245   1.000
    O10     O    0.33269   0.33255   0.18608   1.000
    O11     O    0.33269   0.18605   0.33259   1.000
    O12     O    0.18615   0.33255   0.33261   1.000
    O13     O    0.18598   0.14889   0.33246   1.000
    O14     O    0.33249   0.14892   0.33248   1.000
    O15     O    0.33246   0.14889   0.18597   1.000
    O16     O    0.33248   0.33247   0.14891   1.000
    O17     O    0.18598   0.33244   0.14886   1.000
    O18     O    0.33244   0.18596   0.14887   1.000
    Zr19    Zr   0.75002   0.75003   0.75001   1.000
    O20     O    0.81387   0.66744   0.66738   1.000
    O21     O    0.66733   0.66745   0.81391   1.000
    O22     O    0.66733   0.81395   0.66739   1.000
    O23     O    0.81404   0.85111   0.66753   1.000
    O24     O    0.66753   0.85107   0.66750   1.000
    O25     O    0.66756   0.85110   0.81402   1.000
    O26     O    0.85116   0.81404   0.66758   1.000
    O27     O    0.85116   0.66759   0.81403   1.000
    O28     O    0.85110   0.66754   0.66753   1.000
    O29     O    0.66754   0.66752   0.85108   1.000
    O30     O    0.81404   0.66755   0.85112   1.000
    O31     O    0.66758   0.81403   0.85112   1.000
loop_
    _geom_bond_atom_site_label_1
    _geom_bond_atom_site_label_2
    _geom_bond_distance
    _geom_bond_site_symmetry_2
    _ccdc_geom_bond_type
    Zr6    O7        2.18162      .   S
    N3     O7        4.38249  1_565   S
    Zr6    O8        2.18271      .   S
    N5     O8        4.38383  1_556   S
    Zr6    O9        2.18020      .   S
    N1     O9        4.38124      .   S
    Zr6    O10       2.18184      .   S
    N4     O10       4.38373  1_556   S
    Zr6    O11       2.18278      .   S
    N2     O11       4.38481  1_565   S
    Zr6    O12       2.18027      .   S
    N1     O12       4.38175      .   S
    Zr6    O13       2.18170      .   S
    N3     O13       4.38229  1_565   S
    Zr6    O14       2.18279      .   S
    N2     O14       4.38408  1_565   S
    Zr6    O15       2.18002      .   S
    N0     O15       4.38020  1_566   S
    Zr6    O16       2.18181      .   S
    N4     O16       4.38311  1_556   S
    Zr6    O17       2.18275      .   S
    N5     O17       4.38373  1_556   S
    Zr6    O18       2.18000      .   S
    N0     O18       4.38027  1_566   S
    Zr19   O20       2.18029      .   S
    N1     O20       4.38185  1_455   S
    Zr19   O21       2.18183      .   S
    N4     O21       4.38373      .   S
    Zr19   O22       2.18278      .   S
    N2     O22       4.38489      .   S
    Zr19   O23       2.18170      .   S
    N3     O23       4.38229  1_455   S
    Zr19   O24       2.18279      .   S
    N2     O24       4.38416      .   S
    Zr19   O25       2.18001      .   S
    N0     O25       4.38011      .   S
    Zr19   O26       2.18162      .   S
    N3     O26       4.38249  1_455   S
    Zr19   O27       2.18267      .   S
    N5     O27       4.38377  1_455   S
    Zr19   O28       2.18026      .   S
    N1     O28       4.38131  1_455   S
    Zr19   O29       2.18181      .   S
    N4     O29       4.38310      .   S
    Zr19   O30       2.18273      .   S
    N5     O30       4.38364  1_455   S
    Zr19   O31       2.17998      .   S
    N0     O31       4.38019      .   S
