# CIF file generated by openbabel 2.4.90, see http://openbabel.sf.net
data_I
_chemical_name_common ''
_cell_length_a 15.826
_cell_length_b 15.805
_cell_length_c 18.637
_cell_angle_alpha 90
_cell_angle_beta 90.002
_cell_angle_gamma 89.996
_space_group_name_H-M_alt 'P 1'
_space_group_name_Hall 'P 1'
loop_
    _symmetry_equiv_pos_as_xyz
    x,y,z
loop_
    _atom_site_label
    _atom_site_type_symbol
    _atom_site_fract_x
    _atom_site_fract_y
    _atom_site_fract_z
    _atom_site_occupancy
    N0      N    0.39671   0.67122   0.62308   1.000
    N1      N    0.89673   0.82874   0.37696   1.000
    N2      N    0.63542   0.01735   0.30486   1.000
    N3      N    0.89672   0.67122   0.87693   1.000
    N4      N    0.13544   0.01736   0.19511   1.000
    N5      N    0.60305   0.69578   0.33101   1.000
    N6      N    0.65840   0.87606   0.57295   1.000
    N7      N    0.39688   0.19576   0.16898   1.000
    N8      N    0.10299   0.80419   0.66893   1.000
    N9      N    0.84160   0.37616   0.57296   1.000
    N10     N    0.34158   0.12392   0.42701   1.000
    N11     N    0.60308   0.80421   0.83098   1.000
    N12     N    0.39673   0.82874   0.12304   1.000
    N13     N    0.36456   0.98263   0.69512   1.000
    N14     N    0.13542   0.48262   0.69512   1.000
    N15     N    0.89696   0.30419   0.83103   1.000
    N16     N    0.84159   0.12393   0.07296   1.000
    N17     N    0.15837   0.62381   0.42664   1.000
    N18     N    0.65839   0.62381   0.07296   1.000
    N19     N    0.60326   0.32876   0.37690   1.000
    N20     N    0.39690   0.30421   0.66888   1.000
    N21     N    0.15839   0.87605   0.92701   1.000
    N22     N    0.10300   0.69580   0.16895   1.000
    N23     N    0.63541   0.48263   0.80485   1.000
    N24     N    0.10326   0.32876   0.12304   1.000
    N25     N    0.89697   0.19579   0.33104   1.000
    N26     N    0.10324   0.17124   0.62302   1.000
    N27     N    0.60325   0.17124   0.87692   1.000
    N28     N    0.34158   0.37616   0.92702   1.000
    N29     N    0.86454   0.98262   0.80486   1.000
    N30     N    0.86455   0.51736   0.30486   1.000
    N31     N    0.36456   0.51736   0.19512   1.000
    Zr32    Zr   0.69609   0.64106   0.90283   1.000
    O33     O    0.67617   0.58867   0.87142   1.000
    O34     O    0.66491   0.69412   0.87942   1.000
    O35     O    0.76163   0.65122   0.89414   1.000
    O36     O    0.68316   0.63556   0.95838   1.000
    Zr37    Zr   0.49616   0.16702   0.31873   1.000
    O38     O    0.44607   0.15308   0.35472   1.000
    O39     O    0.46436   0.17704   0.26950   1.000
    O40     O    0.53149   0.21981   0.33764   1.000
    O41     O    0.54115   0.11748   0.31442   1.000
    Zr42    Zr   0.50382   0.83296   0.68120   1.000
    O43     O    0.45883   0.88250   0.68553   1.000
    O44     O    0.53561   0.82293   0.73044   1.000
    O45     O    0.46849   0.78017   0.66231   1.000
    O46     O    0.55391   0.84690   0.64522   1.000
    Zr47    Zr   0.30388   0.14108   0.59715   1.000
    O48     O    0.32379   0.08868   0.62855   1.000
    O49     O    0.31681   0.13560   0.54160   1.000
    O50     O    0.33507   0.19412   0.62054   1.000
    O51     O    0.23834   0.15123   0.60583   1.000
    Zr52    Zr   0.19610   0.85890   0.09715   1.000
    O53     O    0.16489   0.80587   0.12055   1.000
    O54     O    0.17619   0.91130   0.12855   1.000
    O55     O    0.26164   0.84875   0.10584   1.000
    O56     O    0.18316   0.86437   0.04159   1.000
    Zr57    Zr   0.49615   0.33297   0.81873   1.000
    O58     O    0.54114   0.38251   0.81441   1.000
    O59     O    0.44606   0.34694   0.85473   1.000
    O60     O    0.53147   0.28018   0.83765   1.000
    O61     O    0.46436   0.32294   0.76948   1.000
    Zr62    Zr   0.80389   0.35891   0.40283   1.000
    O63     O    0.82380   0.41131   0.37143   1.000
    O64     O    0.83509   0.30587   0.37943   1.000
    O65     O    0.81682   0.36442   0.45838   1.000
    O66     O    0.73835   0.34876   0.39413   1.000
    Zr67    Zr   0.99617   0.16702   0.18127   1.000
    O68     O    0.03149   0.21982   0.16234   1.000
    O69     O    0.96440   0.17706   0.23050   1.000
    O70     O    0.94607   0.15309   0.14527   1.000
    O71     O    0.04116   0.11749   0.18557   1.000
    Zr72    Zr   0.00382   0.66701   0.31872   1.000
    O73     O    0.95882   0.61748   0.31441   1.000
    O74     O    0.96849   0.71980   0.33765   1.000
    O75     O    0.05390   0.65305   0.35462   1.000
    O76     O    0.03559   0.67705   0.26949   1.000
    Zr77    Zr   0.69610   0.85890   0.40284   1.000
    O78     O    0.76164   0.84874   0.39415   1.000
    O79     O    0.66490   0.80586   0.37943   1.000
    O80     O    0.68316   0.86438   0.45839   1.000
    O81     O    0.67618   0.91130   0.37143   1.000
    Zr82    Zr   0.30389   0.35891   0.09715   1.000
    O83     O    0.23835   0.34876   0.10584   1.000
    O84     O    0.32380   0.41131   0.12856   1.000
    O85     O    0.31682   0.36441   0.04160   1.000
    O86     O    0.33507   0.30586   0.12056   1.000
    Zr87    Zr   0.80388   0.14107   0.90283   1.000
    O88     O    0.82378   0.08867   0.87143   1.000
    O89     O    0.83508   0.19411   0.87943   1.000
    O90     O    0.73834   0.15123   0.89414   1.000
    O91     O    0.81682   0.13560   0.95838   1.000
    Zr92    Zr   0.99616   0.33297   0.68126   1.000
    O93     O    0.03148   0.28018   0.66233   1.000
    O94     O    0.94607   0.34693   0.64526   1.000
    O95     O    0.96438   0.32293   0.73049   1.000
    O96     O    0.04115   0.38250   0.68557   1.000
    Zr97    Zr   0.19609   0.64106   0.59715   1.000
    O98     O    0.17618   0.58867   0.62855   1.000
    O99     O    0.18315   0.63556   0.54113   1.000
    O100    O    0.26163   0.65122   0.60585   1.000
    O101    O    0.16488   0.69411   0.62054   1.000
    Zr102   Zr   0.00381   0.83295   0.81870   1.000
    O103    O    0.95881   0.88249   0.81440   1.000
    O104    O    0.96848   0.78016   0.83763   1.000
    O105    O    0.05390   0.84689   0.85470   1.000
    O106    O    0.03558   0.82292   0.76947   1.000
    Zr107   Zr   0.50383   0.66700   0.18125   1.000
    O108    O    0.45883   0.61747   0.18557   1.000
    O109    O    0.53561   0.67704   0.23048   1.000
    O110    O    0.46850   0.71980   0.16233   1.000
    O111    O    0.55392   0.65304   0.14525   1.000
loop_
    _geom_bond_atom_site_label_1
    _geom_bond_atom_site_label_2
    _geom_bond_distance
    _geom_bond_site_symmetry_2
    _ccdc_geom_bond_type
    Zr32   O33       1.06193      .   S
    N23    O33       2.18277      .   S
    Zr32   O34       1.06626      .   S
    N11    O34       2.19081      .   S
    Zr32   O35       1.06201      .   S
    N3     O35       2.18484      .   S
    Zr32   O36       1.05895      .   S
    N18    O36       2.17898  1_554   S
    Zr37   O38       1.06164      .   S
    N10    O38       2.18227      .   S
    Zr37   O39       1.05832      .   S
    N7     O39       2.17656      .   S
    Zr37   O40       1.06446      .   S
    N19    O40       2.18880      .   S
    Zr37   O41       1.06129      .   S
    N2     O41       2.18214      .   S
    Zr42   O43       1.06132      .   S
    N13    O43       2.18221      .   S
    Zr42   O44       1.05846      .   S
    N11    O44       2.17682      .   S
    Zr42   O45       1.06436      .   S
    N0     O45       2.18862      .   S
    Zr42   O46       1.06143      .   S
    N6     O46       2.18201      .   S
    Zr47   O48       1.06190      .   S
    N13    O48       2.18274  1_565   S
    Zr47   O49       1.05896      .   S
    N10    O49       2.17900      .   S
    Zr47   O50       1.06605      .   S
    N20    O50       2.19016      .   S
    Zr47   O51       1.06201      .   S
    N26    O51       2.18482      .   S
    Zr52   O53       1.06625      .   S
    N22    O53       2.19075      .   S
    Zr52   O54       1.06189      .   S
    N4     O54       2.18269  1_545   S
    Zr52   O55       1.06199      .   S
    N12    O55       2.18480      .   S
    Zr52   O56       1.05898      .   S
    N21    O56       2.17900  1_556   S
    Zr57   O58       1.06132      .   S
    N23    O58       2.18219      .   S
    Zr57   O59       1.06168      .   S
    N28    O59       2.18235      .   S
    Zr57   O60       1.06442      .   S
    N27    O60       2.18871      .   S
    Zr57   O61       1.05862      .   S
    N20    O61       2.17773      .   S
    Zr62   O63       1.06193      .   S
    N30    O63       2.18275      .   S
    Zr62   O64       1.06623      .   S
    N25    O64       2.19069      .   S
    Zr62   O65       1.05894      .   S
    N9     O65       2.17896      .   S
    Zr62   O66       1.06203      .   S
    N19    O66       2.18487      .   S
    Zr67   O68       1.06454  1_655   S
    N24    O68       2.18893      .   S
    Zr67   O69       1.05825      .   S
    N25    O69       2.17659      .   S
    Zr67   O70       1.06168      .   S
    N16    O70       2.18242      .   S
    Zr67   O71       1.06131  1_655   S
    N4     O71       2.18215      .   S
    Zr72   O73       1.06135  1_455   S
    N30    O73       2.18223      .   S
    Zr72   O74       1.06447  1_455   S
    N1     O74       2.18879      .   S
    Zr72   O75       1.06053      .   S
    N17    O75       2.17905      .   S
    Zr72   O76       1.05823      .   S
    N22    O76       2.17658      .   S
    Zr77   O78       1.06200      .   S
    N1     O78       2.18480      .   S
    Zr77   O79       1.06627      .   S
    N5     O79       2.19078      .   S
    Zr77   O80       1.05884      .   S
    N6     O80       2.17872      .   S
    Zr77   O81       1.06195      .   S
    N2     O81       2.18283  1_545   S
    Zr82   O83       1.06202      .   S
    N24    O83       2.18485      .   S
    Zr82   O84       1.06195      .   S
    N31    O84       2.18280      .   S
    Zr82   O85       1.05894      .   S
    N28    O85       2.17896  1_556   S
    Zr82   O86       1.06622      .   S
    N7     O86       2.19065      .   S
    Zr87   O88       1.06190      .   S
    N29    O88       2.18273  1_565   S
    Zr87   O89       1.06625      .   S
    N15    O89       2.19074      .   S
    Zr87   O90       1.06201      .   S
    N27    O90       2.18484      .   S
    Zr87   O91       1.05894      .   S
    N16    O91       2.17888  1_554   S
    Zr92   O93       1.06447  1_655   S
    N26    O93       2.18882      .   S
    Zr92   O94       1.06166      .   S
    N9     O94       2.18235      .   S
    Zr92   O95       1.05826      .   S
    N15    O95       2.17663      .   S
    Zr92   O96       1.06134  1_655   S
    N14    O96       2.18221      .   S
    Zr97   O98       1.06191      .   S
    N14    O98       2.18270      .   S
    Zr97   O99       1.06749      .   S
    N17    O99       2.17736      .   S
    Zr97   O100      1.06201      .   S
    N0     O100      2.18482      .   S
    Zr97   O101      1.06625      .   S
    N8     O101      2.19071      .   S
    Zr102  O103      1.06132  1_455   S
    N29    O103      2.18218      .   S
    Zr102  O104      1.06453  1_455   S
    N3     O104      2.18893      .   S
    Zr102  O105      1.06170      .   S
    N21    O105      2.18241      .   S
    Zr102  O106      1.05817      .   S
    N8     O106      2.17646      .   S
    Zr107  O108      1.06132      .   S
    N31    O108      2.18220      .   S
    Zr107  O109      1.05822      .   S
    N5     O109      2.17659      .   S
    Zr107  O110      1.06445      .   S
    N12    O110      2.18881      .   S
    Zr107  O111      1.06166      .   S
    N18    O111      2.18232      .   S
