# CIF file generated by openbabel 2.4.90, see http://openbabel.sf.net
data_I
_chemical_name_common ''
_cell_length_a 14.01
_cell_length_b 16.787
_cell_length_c 16.818
_cell_angle_alpha 103.804
_cell_angle_beta 109.775
_cell_angle_gamma 109.721
_space_group_name_H-M_alt 'P 1'
_space_group_name_Hall 'P 1'
loop_
    _symmetry_equiv_pos_as_xyz
    x,y,z
loop_
    _atom_site_label
    _atom_site_type_symbol
    _atom_site_fract_x
    _atom_site_fract_y
    _atom_site_fract_z
    _atom_site_occupancy
    Zr0     Zr   0.28791   0.33897   0.20298   1.000
    Zr1     Zr   0.54021   0.36062   0.27519   1.000
    Zr2     Zr   0.21235   0.79713   0.66157   1.000
    Zr3     Zr   0.96004   0.72506   0.64010   1.000
    Zr4     Zr   0.71215   0.66106   0.79704   1.000
    Zr5     Zr   0.45985   0.63941   0.72483   1.000
    Zr6     Zr   0.78772   0.20291   0.33845   1.000
    Zr7     Zr   0.04002   0.27499   0.35992   1.000
    N8      N    0.00004   0.99998   0.50000   1.000
    O9      O    0.01977   0.11373   0.44272   1.000
    O10     O    0.08780   0.91693   0.56519   1.000
    O11     O    0.91227   0.08307   0.43481   1.000
    O12     O    0.98030   0.88627   0.55729   1.000
    N13     N    0.50003   0.50001   0.99997   1.000
    O14     O    0.51992   0.44305   0.11385   1.000
    O15     O    0.41235   0.43500   0.08306   1.000
    O16     O    0.48014   0.55698   0.88614   1.000
    O17     O    0.58771   0.56503   0.91692   1.000
    N18     N    0.00003   0.50002   0.50001   1.000
    O19     O    0.00479   0.60155   0.56097   1.000
    O20     O    0.19027   0.55520   0.59012   1.000
    O21     O    0.99527   0.39849   0.43905   1.000
    O22     O    0.80979   0.44483   0.40990   1.000
    N23     N    0.74990   0.98543   0.01421   1.000
    O24     O    0.76711   0.08322   0.14453   1.000
    O25     O    0.87457   0.10991   0.15341   1.000
    O26     O    0.62526   0.84613   0.88979   1.000
    O27     O    0.73273   0.85510   0.91646   1.000
    N28     N    0.25015   0.01460   0.98581   1.000
    O29     O    0.12549   0.89013   0.84660   1.000
    O30     O    0.26733   0.14493   0.08355   1.000
    O31     O    0.37479   0.15390   0.11024   1.000
    O32     O    0.23295   0.91682   0.85549   1.000
    N33     N    0.24992   0.89218   0.10748   1.000
    O34     O    0.02176   0.78928   0.98069   1.000
    O35     O    0.47810   0.01907   0.21032   1.000
    N36     N    0.75015   0.10785   0.89253   1.000
    O37     O    0.97831   0.21075   0.01933   1.000
    O38     O    0.52197   0.98097   0.78969   1.000
    N39     N    0.50003   0.50002   0.50001   1.000
    O40     O    0.49541   0.43960   0.39850   1.000
    O41     O    0.30973   0.40976   0.44452   1.000
    O42     O    0.50465   0.56044   0.60151   1.000
    O43     O    0.69033   0.59029   0.55550   1.000
    O44     O    0.90400   0.37670   0.42752   1.000
    O45     O    0.59594   0.57216   0.62333   1.000
    O46     O    0.40412   0.42788   0.37668   1.000
    O47     O    0.09606   0.62333   0.57250   1.000
loop_
    _geom_bond_atom_site_label_1
    _geom_bond_atom_site_label_2
    _geom_bond_distance
    _geom_bond_site_symmetry_2
    _ccdc_geom_bond_type
    N8     O9        2.31356  1_565   S
    Zr7    O9        3.30087      .   S
    N8     O10       2.37308      .   S
    Zr2    O10       3.42441      .   S
    N8     O11       2.37367  1_465   S
    Zr6    O11       3.42497      .   S
    N8     O12       2.31300  1_455   S
    Zr3    O12       3.30030      .   S
    N13    O14       2.31350  1_556   S
    Zr1    O14       3.30057      .   S
    N13    O15       2.37425  1_556   S
    Zr0    O15       3.42638      .   S
    N13    O16       2.31295      .   S
    Zr5    O16       3.30005      .   S
    N13    O17       2.37368      .   S
    Zr4    O17       3.42578      .   S
    N18    O19       1.73314      .   S
    Zr3    O19       2.56669  1_655   S
    N18    O20       2.27792      .   S
    Zr5    O20       3.23641      .   S
    N18    O21       1.73308  1_455   S
    Zr7    O21       2.56664  1_455   S
    N18    O22       2.27792  1_455   S
    Zr1    O22       3.23642      .   S
    N23    O24       2.28358  1_565   S
    Zr6    O24       3.25595      .   S
    N23    O25       2.30935  1_565   S
    Zr7    O25       3.27709  1_455   S
    N23    O26       2.30931  1_554   S
    Zr5    O26       3.27687      .   S
    N23    O27       2.28206  1_554   S
    Zr4    O27       3.25268      .   S
    N28    O29       2.30939  1_545   S
    Zr3    O29       3.27699  1_655   S
    N28    O30       2.28193  1_556   S
    Zr0    O30       3.25275      .   S
    N28    O31       2.30932  1_556   S
    Zr1    O31       3.27686      .   S
    N28    O32       2.28359  1_545   S
    Zr2    O32       3.25599      .   S
    N33    O34       2.76631  1_554   S
    Zr4    O34       3.80114  1_655   S
    N33    O35       2.76643  1_565   S
    Zr6    O35       3.80145      .   S
    N36    O37       2.76630  1_556   S
    Zr0    O37       3.80107  1_455   S
    N36    O38       2.76642  1_545   S
    Zr2    O38       3.80142      .   S
    N39    O40       1.73256      .   S
    Zr1    O40       2.56575      .   S
    N39    O41       2.27822      .   S
    Zr7    O41       3.23687      .   S
    N39    O42       1.73256      .   S
    Zr5    O42       2.56572      .   S
    N39    O43       2.27822      .   S
    Zr3    O43       3.23688      .   S
    Zr6    O44       2.54265      .   S
    N18    O44       1.84062  1_455   S
    Zr4    O45       2.54433      .   S
    N39    O45       1.84155      .   S
    Zr0    O46       2.54435      .   S
    N39    O46       1.84156      .   S
    Zr2    O47       2.54269      .   S
    N18    O47       1.84065      .   S
