# CIF file generated by openbabel 2.4.90, see http://openbabel.sf.net
data_I
_chemical_name_common ''
_cell_length_a 21.592
_cell_length_b 12.585
_cell_length_c 17.174
_cell_angle_alpha 89.958
_cell_angle_beta 95.414
_cell_angle_gamma 90.039
_space_group_name_H-M_alt 'P 1'
_space_group_name_Hall 'P 1'
loop_
    _symmetry_equiv_pos_as_xyz
    x,y,z
loop_
    _atom_site_label
    _atom_site_type_symbol
    _atom_site_fract_x
    _atom_site_fract_y
    _atom_site_fract_z
    _atom_site_occupancy
    H0      H    0.25833   0.05309   0.64303   1.000
    H1      H    0.75917   0.05199   0.64410   1.000
    H2      H    0.32430   0.01363   0.59654   1.000
    H3      H    0.82537   0.01376   0.59755   1.000
    H4      H    0.01731   0.37403   0.57496   1.000
    H5      H    0.51583   0.37382   0.57530   1.000
    H6      H    0.08838   0.30172   0.58688   1.000
    H7      H    0.58687   0.30166   0.58859   1.000
    H8      H    0.49176   0.55336   0.85586   1.000
    H9      H    0.98984   0.55137   0.85777   1.000
    H10     H    0.42549   0.51389   0.90182   1.000
    H11     H    0.92364   0.51339   0.90452   1.000
    H12     H    0.23328   0.87418   0.92348   1.000
    H13     H    0.73261   0.87390   0.92583   1.000
    H14     H    0.16211   0.80207   0.91113   1.000
    H15     H    0.66144   0.80180   0.91335   1.000
    H16     H    0.24081   0.94799   0.35585   1.000
    H17     H    0.74164   0.94690   0.35692   1.000
    H18     H    0.17461   0.98624   0.40241   1.000
    H19     H    0.67567   0.98635   0.40342   1.000
    H20     H    0.48414   0.62617   0.42465   1.000
    H21     H    0.98266   0.62597   0.42499   1.000
    H22     H    0.41310   0.69834   0.41137   1.000
    H23     H    0.91159   0.69829   0.41308   1.000
    H24     H    0.01013   0.44863   0.14219   1.000
    H25     H    0.50820   0.44662   0.14411   1.000
    H26     H    0.07633   0.48661   0.09544   1.000
    H27     H    0.57446   0.48610   0.09814   1.000
    H28     H    0.26736   0.12610   0.07413   1.000
    H29     H    0.76669   0.12582   0.07648   1.000
    H30     H    0.33854   0.19820   0.08661   1.000
    H31     H    0.83786   0.19793   0.08883   1.000
    C32     C    0.29812   0.08341   0.61450   1.000
    C33     C    0.79890   0.08302   0.61579   1.000
    C34     C    0.05390   0.33844   0.54337   1.000
    C35     C    0.55283   0.33822   0.54446   1.000
    C36     C    0.45183   0.58368   0.88404   1.000
    C37     C    0.95021   0.58254   0.88614   1.000
    C38     C    0.19651   0.83858   0.95483   1.000
    C39     C    0.69579   0.83835   0.95711   1.000
    C40     C    0.20108   0.91697   0.38416   1.000
    C41     C    0.70185   0.91658   0.38546   1.000
    C42     C    0.44714   0.66178   0.45550   1.000
    C43     C    0.94607   0.66156   0.45658   1.000
    C44     C    0.04976   0.41746   0.11383   1.000
    C45     C    0.54813   0.41631   0.11593   1.000
    C46     C    0.30419   0.16164   0.04285   1.000
    C47     C    0.80346   0.16141   0.04513   1.000
loop_
    _geom_bond_atom_site_label_1
    _geom_bond_atom_site_label_2
    _geom_bond_distance
    _geom_bond_site_symmetry_2
    _ccdc_geom_bond_type
    C46    H28       1.09580      .   S
    C46    H30       1.10511      .   S
    C47    H29       1.09575      .   S
    C47    H31       1.10504      .   S
    H26    C44       1.10427      .   S
    H27    C45       1.10449      .   S
    C44    H24       1.09656      .   S
    C45    H25       1.09667      .   S
    H16    C40       1.09661      .   S
    H17    C41       1.09667      .   S
    C40    H18       1.10442      .   S
    C41    H19       1.10447      .   S
    H22    C42       1.10511      .   S
    H23    C43       1.10504      .   S
    H20    C42       1.09563      .   S
    H21    C43       1.09583      .   S
    C34    H4        1.09587      .   S
    C34    H6        1.10511      .   S
    C35    H5        1.09554      .   S
    C35    H7        1.10511      .   S
    H2     C32       1.10447      .   S
    H3     C33       1.10436      .   S
    C32    H0        1.09662      .   S
    C33    H1        1.09661      .   S
    H8     C36       1.09664      .   S
    H9     C37       1.09664      .   S
    C36    H10       1.10444      .   S
    C37    H11       1.10420      .   S
    H14    C38       1.10501      .   S
    H15    C39       1.10507      .   S
    H12    C38       1.09578      .   S
    H13    C39       1.09585      .   S
