# CIF file generated by openbabel 2.4.90, see http://openbabel.sf.net
data_I
_chemical_name_common ''
_cell_length_a 21.592
_cell_length_b 12.585
_cell_length_c 17.174
_cell_angle_alpha 89.958
_cell_angle_beta 95.414
_cell_angle_gamma 90.039
_space_group_name_H-M_alt 'P 1'
_space_group_name_Hall 'P 1'
loop_
    _symmetry_equiv_pos_as_xyz
    x,y,z
loop_
    _atom_site_label
    _atom_site_type_symbol
    _atom_site_fract_x
    _atom_site_fract_y
    _atom_site_fract_z
    _atom_site_occupancy
    Ts0     Ts   0.20550   0.95040   0.38081   1.000
    Ts1     Ts   0.79448   0.04959   0.61915   1.000
    Ts2     Ts   0.30336   0.16198   0.06786   1.000
    Ts3     Ts   0.04541   0.45090   0.11715   1.000
    Ts4     Ts   0.44812   0.66210   0.43051   1.000
    Ts5     Ts   0.70639   0.94994   0.38193   1.000
    Ts6     Ts   0.94677   0.66194   0.43155   1.000
    Ts7     Ts   0.55184   0.33790   0.56945   1.000
    Ts8     Ts   0.54360   0.44968   0.11939   1.000
    Ts9     Ts   0.45636   0.55031   0.88057   1.000
    Ts10    Ts   0.19730   0.83828   0.92981   1.000
    Ts11    Ts   0.05319   0.33806   0.56840   1.000
    Ts12    Ts   0.80267   0.16172   0.07015   1.000
    Ts13    Ts   0.95456   0.54910   0.88281   1.000
    Ts14    Ts   0.29359   0.05004   0.61802   1.000
    Ts15    Ts   0.69661   0.83802   0.93210   1.000
