# CIF file generated by openbabel 2.4.90, see http://openbabel.sf.net
data_I
_chemical_name_common ''
_cell_length_a 21.592
_cell_length_b 12.585
_cell_length_c 17.174
_cell_angle_alpha 89.958
_cell_angle_beta 95.414
_cell_angle_gamma 90.039
_space_group_name_H-M_alt 'P 1'
_space_group_name_Hall 'P 1'
loop_
    _symmetry_equiv_pos_as_xyz
    x,y,z
loop_
    _atom_site_label
    _atom_site_type_symbol
    _atom_site_fract_x
    _atom_site_fract_y
    _atom_site_fract_z
    _atom_site_occupancy
    Zr0     Zr   0.13534   0.26437   0.39733   1.000
    Zr1     Zr   0.63511   0.26416   0.39984   1.000
    Zr2     Zr   0.39469   0.25983   0.54035   1.000
    Zr3     Zr   0.89584   0.25947   0.54266   1.000
    Zr4     Zr   0.11473   0.76443   0.10024   1.000
    Zr5     Zr   0.61367   0.76429   0.10247   1.000
    Zr6     Zr   0.35466   0.75972   0.95696   1.000
    Zr7     Zr   0.85375   0.75945   0.95972   1.000
    Zr8     Zr   0.36486   0.73584   0.60013   1.000
    Zr9     Zr   0.86463   0.73562   0.60263   1.000
    Zr10    Zr   0.10413   0.74053   0.45700   1.000
    Zr11    Zr   0.60528   0.74017   0.45962   1.000
    Zr12    Zr   0.38630   0.23570   0.89749   1.000
    Zr13    Zr   0.88524   0.23557   0.89972   1.000
    Zr14    Zr   0.14622   0.24055   0.04025   1.000
    Zr15    Zr   0.64531   0.24028   0.04302   1.000
    N16     N    0.08897   0.72911   0.27440   1.000
    O17     O    0.09961   0.74507   0.33774   1.000
    O18     O    0.10359   0.75150   0.21656   1.000
    N19     N    0.22239   0.75781   0.56820   1.000
    O20     O    0.27334   0.76199   0.57275   1.000
    O21     O    0.18390   0.76425   0.52350   1.000
    O22     O    0.21159   0.88648   0.43754   1.000
    N23     N    0.77758   0.24219   0.43175   1.000
    O24     O    0.81607   0.23575   0.47638   1.000
    O25     O    0.72663   0.23800   0.42721   1.000
    N26     N    0.91100   0.27088   0.72554   1.000
    O27     O    0.89638   0.24850   0.78339   1.000
    O28     O    0.90037   0.25492   0.66214   1.000
    O29     O    0.82969   0.12141   0.65221   1.000
    N30     N    0.39918   0.98826   0.92308   1.000
    O31     O    0.39041   0.07569   0.92298   1.000
    O32     O    0.37895   0.91374   0.94249   1.000
    N33     N    0.26799   0.37997   0.89615   1.000
    O34     O    0.22560   0.32228   0.95589   1.000
    O35     O    0.30756   0.32314   0.90611   1.000
    O36     O    0.29136   0.22709   0.01201   1.000
    N37     N    0.16145   0.22906   0.22369   1.000
    O38     O    0.15082   0.24504   0.16010   1.000
    O39     O    0.14676   0.25146   0.28136   1.000
    N40     N    0.02760   0.25743   0.93041   1.000
    O41     O    0.06627   0.26411   0.97465   1.000
    O42     O    0.97671   0.26169   0.92624   1.000
    O43     O    0.08046   0.37890   0.15025   1.000
    N44     N    0.35159   0.48853   0.57503   1.000
    O45     O    0.36055   0.57591   0.57503   1.000
    O46     O    0.37132   0.41395   0.55528   1.000
    N47     N    0.48289   0.87916   0.60210   1.000
    O48     O    0.52553   0.82178   0.54293   1.000
    O49     O    0.44339   0.82290   0.59191   1.000
    O50     O    0.45992   0.72699   0.48633   1.000
    N51     N    0.58905   0.72908   0.27618   1.000
    O52     O    0.60012   0.74478   0.33977   1.000
    O53     O    0.60324   0.75159   0.21845   1.000
    N54     N    0.72281   0.75820   0.56987   1.000
    O55     O    0.77360   0.76230   0.57470   1.000
    O56     O    0.68456   0.76446   0.52541   1.000
    O57     O    0.71232   0.88632   0.43888   1.000
    N58     N    0.85156   0.48788   0.57712   1.000
    O59     O    0.87167   0.41344   0.55750   1.000
    O60     O    0.86037   0.57544   0.57718   1.000
    N61     N    0.98319   0.87848   0.60304   1.000
    O62     O    0.02524   0.82146   0.54270   1.000
    O63     O    0.94351   0.82225   0.59343   1.000
    O64     O    0.91897   0.60735   0.47933   1.000
    N65     N    0.51708   0.11973   0.39786   1.000
    O66     O    0.47444   0.17766   0.45703   1.000
    O67     O    0.55658   0.17654   0.40805   1.000
    N68     N    0.64838   0.51146   0.42494   1.000
    O69     O    0.63942   0.42408   0.42494   1.000
    O70     O    0.62865   0.58604   0.44468   1.000
    O71     O    0.58011   0.39235   0.52202   1.000
    N72     N    0.66044   0.22887   0.22595   1.000
    O73     O    0.64597   0.25130   0.28369   1.000
    O74     O    0.64976   0.24473   0.16249   1.000
    N75     N    0.52805   0.25864   0.93123   1.000
    O76     O    0.56617   0.26470   0.97620   1.000
    O77     O    0.47726   0.26259   0.92605   1.000
    O78     O    0.57892   0.37800   0.15247   1.000
    N79     N    0.33953   0.77112   0.77402   1.000
    O80     O    0.35400   0.74869   0.71628   1.000
    O81     O    0.35021   0.75526   0.83748   1.000
    N82     N    0.47192   0.74135   0.06866   1.000
    O83     O    0.52271   0.73740   0.07388   1.000
    O84     O    0.43380   0.73529   0.02357   1.000
    O85     O    0.42104   0.62199   0.84749   1.000
    N86     N    0.23323   0.62067   0.10177   1.000
    O87     O    0.19354   0.67728   0.09173   1.000
    O88     O    0.27545   0.67823   0.04177   1.000
    N89     N    0.10202   0.01206   0.07522   1.000
    O90     O    0.11071   0.92456   0.07513   1.000
    O91     O    0.12210   0.08655   0.05544   1.000
    O92     O    0.20947   0.77326   0.98572   1.000
    N93     N    0.01679   0.12048   0.39691   1.000
    O94     O    0.97473   0.17802   0.45718   1.000
    O95     O    0.05647   0.17722   0.40653   1.000
    N96     N    0.14840   0.51211   0.42282   1.000
    O97     O    0.12830   0.58655   0.44238   1.000
    O98     O    0.13960   0.42456   0.42278   1.000
    O99     O    0.04085   0.27309   0.51262   1.000
    N100    N    0.89796   0.98793   0.92475   1.000
    O101    O    0.87787   0.91345   0.94453   1.000
    O102    O    0.88926   0.07543   0.92483   1.000
    N103    N    0.76674   0.37932   0.89817   1.000
    O104    O    0.80642   0.32272   0.90822   1.000
    O105    O    0.72452   0.32176   0.95819   1.000
    O106    O    0.83051   0.10722   0.02243   1.000
    N107    N    0.83852   0.77094   0.77628   1.000
    O108    O    0.85321   0.74854   0.71861   1.000
    O109    O    0.84915   0.75496   0.83987   1.000
    N110    N    0.97237   0.74257   0.06927   1.000
    O111    O    0.93371   0.73589   0.02457   1.000
    O112    O    0.02326   0.73830   0.07358   1.000
    O113    O    0.96093   0.61324   0.93927   1.000
    N114    N    0.27716   0.24179   0.43009   1.000
    O115    O    0.22637   0.23770   0.42526   1.000
    O116    O    0.31542   0.23554   0.47455   1.000
    N117    N    0.41092   0.27091   0.72377   1.000
    O118    O    0.39673   0.24840   0.78150   1.000
    O119    O    0.39985   0.25521   0.66018   1.000
    O120    O    0.28765   0.11367   0.56108   1.000
    N121    N    0.73198   0.62004   0.10381   1.000
    O122    O    0.69241   0.67686   0.09385   1.000
    O123    O    0.77437   0.67772   0.04408   1.000
    N124    N    0.60079   0.01174   0.07687   1.000
    O125    O    0.60957   0.92430   0.07697   1.000
    O126    O    0.62102   0.08626   0.05747   1.000
    O127    O    0.70862   0.77291   0.98795   1.000
loop_
    _geom_bond_atom_site_label_1
    _geom_bond_atom_site_label_2
    _geom_bond_distance
    _geom_bond_site_symmetry_2
    _ccdc_geom_bond_type
    N16    O17       1.10880      .   S
    Zr10   O17       2.04202      .   S
    N16    O18       1.10656      .   S
    Zr4    O18       2.04087      .   S
    N19    O20       1.09678      .   S
    Zr8    O20       2.01491      .   S
    N19    O21       1.07979      .   S
    Zr10   O21       1.99721      .   S
    N16    O22       4.16926      .   S
    N19    O22       2.75836      .   S
    N23    O24       1.07907      .   S
    Zr3    O24       1.99540      .   S
    N23    O25       1.09675      .   S
    Zr1    O25       2.01486      .   S
    N26    O27       1.10664      .   S
    Zr13   O27       2.04105      .   S
    N26    O28       1.10993      .   S
    Zr3    O28       2.04575      .   S
    N23    O29       4.13533      .   S
    N26    O29       2.79082      .   S
    N30    O31       1.11672  1_565   S
    Zr12   O31       2.06062      .   S
    N30    O32       1.09904      .   S
    Zr6    O32       2.02887      .   S
    N33    O34       1.61013      .   S
    Zr14   O34       2.56093  1_554   S
    N33    O35       1.11530      .   S
    Zr12   O35       2.04292      .   S
    N30    O36       4.18032  1_566   S
    N33    O36       2.77880  1_556   S
    N37    O38       1.11279      .   S
    Zr14   O38       2.05208      .   S
    N37    O39       1.10489      .   S
    Zr0    O39       2.03651      .   S
    N40    O41       1.07777      .   S
    Zr14   O41       1.99275  1_554   S
    N40    O42       1.09567  1_455   S
    Zr13   O42       2.01152      .   S
    N40    O43       4.13367  1_556   S
    N37    O43       2.79100      .   S
    N44    O45       1.11646      .   S
    Zr8    O45       2.05880      .   S
    N44    O46       1.09804      .   S
    Zr2    O46       2.02708      .   S
    N47    O48       1.60626      .   S
    Zr11   O48       2.55670      .   S
    N47    O49       1.10930      .   S
    Zr8    O49       2.03428      .   S
    N44    O50       4.17779      .   S
    N47    O50       2.77214      .   S
    N51    O52       1.11351      .   S
    Zr11   O52       2.05153      .   S
    N51    O53       1.10172      .   S
    Zr5    O53       2.03175      .   S
    N54    O55       1.09315      .   S
    Zr9    O55       2.00706      .   S
    N54    O56       1.07358      .   S
    Zr11   O56       1.98364      .   S
    N51    O57       4.17197      .   S
    N54    O57       2.75881      .   S
    N58    O59       1.09928      .   S
    Zr3    O59       2.02961      .   S
    N58    O60       1.11803      .   S
    Zr9    O60       2.06323      .   S
    N61    O62       1.61020  1_655   S
    Zr10   O62       2.56569      .   S
    N61    O63       1.11114      .   S
    Zr9    O63       2.04021      .   S
    N61    O64       4.18651      .   S
    N58    O64       2.76665      .   S
    N65    O66       1.60950      .   S
    Zr2    O66       2.55957      .   S
    N65    O67       1.11375      .   S
    Zr1    O67       2.03801      .   S
    N68    O69       1.11646      .   S
    Zr1    O69       2.05881      .   S
    N68    O70       1.09803      .   S
    Zr11   O70       2.02709      .   S
    N65    O71       4.19846      .   S
    N68    O71       2.76713      .   S
    N72    O73       1.10431      .   S
    Zr1    O73       2.03698      .   S
    N72    O74       1.11047      .   S
    Zr15   O74       2.04569      .   S
    N75    O76       1.07697      .   S
    Zr15   O76       1.99032  1_554   S
    N75    O77       1.09289      .   S
    Zr12   O77       2.00748      .   S
    N75    O78       4.13745  1_556   S
    N72    O78       2.79178      .   S
    N79    O80       1.10431      .   S
    Zr8    O80       2.03698      .   S
    N79    O81       1.11054      .   S
    Zr6    O81       2.04584      .   S
    N82    O83       1.09287      .   S
    Zr5    O83       2.00755      .   S
    N82    O84       1.07835      .   S
    Zr6    O84       1.98852  1_556   S
    N82    O85       4.13636  1_554   S
    N79    O85       2.79179      .   S
    N86    O87       1.11540      .   S
    Zr4    O87       2.04197      .   S
    N86    O88       1.61033      .   S
    Zr6    O88       2.56204  1_556   S
    N89    O90       1.11721  1_545   S
    Zr4    O90       2.06083      .   S
    N89    O91       1.09954      .   S
    Zr14   O91       2.02957      .   S
    N89    O92       4.17936  1_544   S
    N86    O92       2.77957  1_554   S
    N93    O94       1.61231  1_455   S
    Zr3    O94       2.56597      .   S
    N93    O95       1.11528      .   S
    Zr0    O95       2.04367      .   S
    N96    O97       1.09887      .   S
    Zr10   O97       2.02905      .   S
    N96    O98       1.11803      .   S
    Zr0    O98       2.06321      .   S
    N96    O99       4.18092      .   S
    N93    O99       2.77801      .   S
    N100   O101      1.09955      .   S
    Zr7    O101      2.02958      .   S
    N100   O102      1.11721  1_565   S
    Zr13   O102      2.06084      .   S
    N103   O104      1.11542      .   S
    Zr13   O104      2.04198      .   S
    N103   O105      1.61045      .   S
    Zr15   O105      2.56224  1_554   S
    N103   O106      4.19734  1_556   S
    N100   O106      2.76703  1_566   S
    N107   O108      1.10493      .   S
    Zr9    O108      2.03664      .   S
    N107   O109      1.11281      .   S
    Zr7    O109      2.05209      .   S
    N110   O111      1.08290      .   S
    Zr7    O111      1.98650  1_556   S
    N110   O112      1.09560  1_655   S
    Zr4    O112      2.01182      .   S
    N107   O113      4.16698      .   S
    N110   O113      2.75592  1_554   S
    N114   O115      1.09315      .   S
    Zr0    O115      2.00707      .   S
    N114   O116      1.07361      .   S
    Zr2    O116      1.98367      .   S
    N117   O118      1.10177      .   S
    Zr12   O118      2.03189      .   S
    N117   O119      1.11336      .   S
    Zr2    O119      2.05130      .   S
    N117   O120      4.17179      .   S
    N114   O120      2.75885      .   S
    N121   O122      1.11526      .   S
    Zr5    O122      2.04289      .   S
    N121   O123      1.61007      .   S
    Zr7    O123      2.56089  1_556   S
    N124   O125      1.11671  1_545   S
    Zr5    O125      2.06062      .   S
    N124   O126      1.09900      .   S
    Zr15   O126      2.02883      .   S
    N124   O127      4.18022  1_544   S
    N121   O127      2.77875  1_554   S
