# CIF file generated by openbabel 2.4.90, see http://openbabel.sf.net
data_I
_chemical_name_common ''
_cell_length_a 15.583
_cell_length_b 17.778
_cell_length_c 18.307
_cell_angle_alpha 112.399
_cell_angle_beta 89.999
_cell_angle_gamma 89.946
_space_group_name_H-M_alt 'P 1'
_space_group_name_Hall 'P 1'
loop_
    _symmetry_equiv_pos_as_xyz
    x,y,z
loop_
    _atom_site_label
    _atom_site_type_symbol
    _atom_site_fract_x
    _atom_site_fract_y
    _atom_site_fract_z
    _atom_site_occupancy
    H0      H    0.89342   0.22694   0.12998   1.000
    H1      H    0.70263   0.15980   0.94702   1.000
    H2      H    0.79611   0.33578   0.21817   1.000
    H3      H    0.60533   0.26877   0.03519   1.000
    H4      H    0.82229   0.83937   0.85720   1.000
    H5      H    0.75168   0.79017   0.06165   1.000
    H6      H    0.74448   0.71438   0.77088   1.000
    H7      H    0.67459   0.66461   0.97534   1.000
    H8      H    0.25303   0.71388   0.10563   1.000
    H9      H    0.37493   0.70190   0.31164   1.000
    H10     H    0.16776   0.83399   0.19154   1.000
    H11     H    0.28639   0.81939   0.39760   1.000
    H12     H    0.39296   0.27311   0.36844   1.000
    H13     H    0.20489   0.33839   0.55384   1.000
    H14     H    0.29510   0.16476   0.28079   1.000
    H15     H    0.10697   0.22997   0.46610   1.000
    H16     H    0.32172   0.66010   0.64270   1.000
    H17     H    0.25206   0.71001   0.43840   1.000
    H18     H    0.24405   0.78532   0.72912   1.000
    H19     H    0.17514   0.83585   0.52483   1.000
    H20     H    0.75342   0.78622   0.39421   1.000
    H21     H    0.87552   0.79743   0.18799   1.000
    H22     H    0.66810   0.66624   0.30857   1.000
    H23     H    0.78686   0.68013   0.10224   1.000
    H24     H    0.10678   0.77297   0.86989   1.000
    H25     H    0.29734   0.84005   0.05305   1.000
    H26     H    0.20410   0.66405   0.78183   1.000
    H27     H    0.39462   0.73093   0.96505   1.000
    H28     H    0.17805   0.16119   0.14297   1.000
    H29     H    0.24849   0.20891   0.93769   1.000
    H30     H    0.25596   0.28640   0.22867   1.000
    H31     H    0.32571   0.33469   0.02335   1.000
    H32     H    0.74804   0.28553   0.89348   1.000
    H33     H    0.62569   0.29760   0.68771   1.000
    H34     H    0.83289   0.16520   0.80747   1.000
    H35     H    0.71395   0.17995   0.60159   1.000
    H36     H    0.60721   0.72688   0.63160   1.000
    H37     H    0.79517   0.66148   0.44610   1.000
    H38     H    0.70506   0.83533   0.71909   1.000
    H39     H    0.89305   0.77005   0.53365   1.000
    H40     H    0.67849   0.33947   0.35694   1.000
    H41     H    0.74786   0.29026   0.56171   1.000
    H42     H    0.75625   0.21416   0.27089   1.000
    H43     H    0.82490   0.16434   0.47563   1.000
    H44     H    0.24764   0.21424   0.60650   1.000
    H45     H    0.12559   0.20303   0.81200   1.000
    H46     H    0.33319   0.33398   0.69214   1.000
    H47     H    0.21463   0.32002   0.89853   1.000
    C48     C    0.86216   0.12100   0.98080   1.000
    C49     C    0.80396   0.18663   0.03316   1.000
    C50     C    0.83008   0.23626   0.10970   1.000
    C51     C    0.72259   0.19867   0.00641   1.000
    C52     C    0.77608   0.29688   0.15878   1.000
    C53     C    0.66865   0.25936   0.05540   1.000
    C54     C    0.69473   0.30894   0.13204   1.000
    C55     C    0.63646   0.37456   0.18439   1.000
    C56     C    0.84195   0.89465   0.01627   1.000
    C57     C    0.79266   0.82164   0.96471   1.000
    C58     C    0.79029   0.80069   0.88271   1.000
    C59     C    0.75006   0.77276   0.99792   1.000
    C60     C    0.74659   0.73135   0.83459   1.000
    C61     C    0.70657   0.70331   0.94984   1.000
    C62     C    0.70467   0.68206   0.86778   1.000
    C63     C    0.65700   0.60789   0.81621   1.000
    C64     C    0.37116   0.62857   0.15195   1.000
    C65     C    0.31936   0.70036   0.20322   1.000
    C66     C    0.26040   0.73757   0.16958   1.000
    C67     C    0.32920   0.73079   0.28560   1.000
    C68     C    0.21225   0.80400   0.21754   1.000
    C69     C    0.27970   0.79607   0.33363   1.000
    O70     O    0.15908   0.90719   0.75860   1.000
    O71     O    0.93700   0.89127   0.31872   1.000
    O72     O    0.84438   0.90709   0.41934   1.000
    O73     O    0.62156   0.55959   0.18081   1.000
    C74     C    0.22048   0.83303   0.30000   1.000
    C75     C    0.16502   0.90185   0.35130   1.000
    C76     C    0.36339   0.37791   0.51849   1.000
    C77     C    0.30491   0.31244   0.46648   1.000
    C78     C    0.33010   0.26350   0.38934   1.000
    C79     C    0.22413   0.30004   0.49400   1.000
    C80     C    0.27580   0.20314   0.34060   1.000
    C81     C    0.16984   0.23963   0.44527   1.000
    C82     C    0.19498   0.19077   0.36808   1.000
    C83     C    0.13645   0.12549   0.31581   1.000
    C84     C    0.34178   0.60501   0.48365   1.000
    C85     C    0.29256   0.67818   0.53528   1.000
    C86     C    0.28995   0.69898   0.61726   1.000
    C87     C    0.25025   0.72732   0.50214   1.000
    C88     C    0.24636   0.76847   0.66542   1.000
    C89     C    0.20689   0.79693   0.55027   1.000
    C90     C    0.20473   0.81801   0.63229   1.000
    C91     C    0.15706   0.89226   0.68389   1.000
    C92     C    0.87145   0.87117   0.34776   1.000
    C93     C    0.81985   0.79934   0.29652   1.000
    C94     C    0.76084   0.76234   0.33027   1.000
    C95     C    0.82975   0.76873   0.21413   1.000
    C96     C    0.71263   0.69602   0.28244   1.000
    C97     C    0.78018   0.70356   0.16622   1.000
    C98     C    0.72089   0.66683   0.19994   1.000
    C99     C    0.66524   0.59825   0.14870   1.000
    C100    C    0.13790   0.87892   0.01906   1.000
    C101    C    0.19612   0.81325   0.96680   1.000
    C102    C    0.17007   0.76361   0.89019   1.000
    C103    C    0.27742   0.80117   0.99364   1.000
    C104    C    0.22408   0.70295   0.84124   1.000
    C105    C    0.33138   0.74042   0.94473   1.000
    C106    C    0.30536   0.69085   0.86807   1.000
    C107    C    0.36361   0.62518   0.81577   1.000
    C108    C    0.15810   0.10515   0.98380   1.000
    C109    C    0.20755   0.17820   0.03508   1.000
    C110    C    0.21001   0.19961   0.11710   1.000
    C111    C    0.25016   0.22671   0.00146   1.000
    C112    C    0.25379   0.26908   0.16491   1.000
    C113    C    0.29372   0.29628   0.04918   1.000
    C114    C    0.29564   0.31805   0.13130   1.000
    C115    C    0.34334   0.39240   0.18243   1.000
    C116    C    0.63055   0.37146   0.84749   1.000
    C117    C    0.68164   0.29922   0.79602   1.000
    C118    C    0.74051   0.26182   0.82956   1.000
    C119    C    0.67147   0.26866   0.71366   1.000
    C120    C    0.78841   0.19526   0.78153   1.000
    C121    C    0.72079   0.20326   0.66555   1.000
    C122    C    0.78014   0.16631   0.69904   1.000
    C123    C    0.83603   0.09784   0.64780   1.000
    C124    C    0.63670   0.62199   0.48156   1.000
    C125    C    0.69519   0.68748   0.53351   1.000
    C126    C    0.67003   0.73650   0.61064   1.000
    C127    C    0.77595   0.69988   0.50593   1.000
    C128    C    0.72434   0.79690   0.65930   1.000
    C129    C    0.83023   0.76036   0.55458   1.000
    C130    C    0.80512   0.80928   0.63175   1.000
    C131    C    0.86363   0.87462   0.68397   1.000
    C132    C    0.65819   0.39494   0.51606   1.000
    C133    C    0.70747   0.32174   0.46458   1.000
    C134    C    0.71021   0.30072   0.38257   1.000
    C135    C    0.74975   0.27278   0.49795   1.000
    C136    C    0.75386   0.23116   0.33461   1.000
    C137    C    0.79317   0.20312   0.45003   1.000
    C138    C    0.79544   0.18179   0.36798   1.000
    C139    C    0.84317   0.10744   0.31666   1.000
    C140    C    0.13013   0.12891   0.65283   1.000
    C141    C    0.18136   0.20098   0.70424   1.000
    C142    C    0.24031   0.23804   0.67000   1.000
    C143    C    0.17145   0.23163   0.78663   1.000
    C144    C    0.28867   0.30424   0.71831   1.000
    C145    C    0.22126   0.29665   0.83455   1.000
    C146    C    0.28069   0.33326   0.80083   1.000
    C147    C    0.33691   0.40144   0.85184   1.000
    O148    O    0.93342   0.10894   0.00000   1.000
    O149    O    0.83438   0.08144   0.91002   1.000
    O150    O    0.56662   0.38828   0.15652   1.000
    O151    O    0.66283   0.41220   0.25603   1.000
    O152    O    0.88074   0.93713   0.98505   1.000
    O153    O    0.84085   0.90862   0.09093   1.000
    O154    O    0.61885   0.56518   0.84764   1.000
    O155    O    0.65906   0.59298   0.74143   1.000
    O156    O    0.43692   0.60874   0.18099   1.000
    O157    O    0.34411   0.59242   0.08042   1.000
    O158    O    0.12130   0.94053   0.31927   1.000
    O159    O    0.16647   0.91594   0.42610   1.000
    O160    O    0.43372   0.39064   0.49073   1.000
    O161    O    0.33671   0.41661   0.58984   1.000
    O162    O    0.06667   0.11184   0.34379   1.000
    O163    O    0.16263   0.08806   0.24406   1.000
    O164    O    0.38046   0.56245   0.51492   1.000
    O165    O    0.34077   0.59106   0.40899   1.000
    O166    O    0.11889   0.93504   0.65248   1.000
    O167    O    0.66650   0.58436   0.07399   1.000
    O168    O    0.06667   0.89095   0.99215   1.000
    O169    O    0.16561   0.91854   0.08986   1.000
    O170    O    0.43339   0.61139   0.84369   1.000
    O171    O    0.33727   0.58758   0.74410   1.000
    O172    O    0.11919   0.06295   0.01525   1.000
    O173    O    0.15918   0.09092   0.90909   1.000
    O174    O    0.38167   0.43457   0.15049   1.000
    O175    O    0.34106   0.40795   0.25732   1.000
    O176    O    0.56424   0.39124   0.81918   1.000
    O177    O    0.65900   0.40800   0.91852   1.000
    O178    O    0.88002   0.05947   0.68003   1.000
    O179    O    0.83494   0.08375   0.57303   1.000
    O180    O    0.56631   0.60937   0.50932   1.000
    O181    O    0.66339   0.58315   0.41020   1.000
    O182    O    0.93335   0.88834   0.65590   1.000
    O183    O    0.83746   0.91201   0.75574   1.000
    O184    O    0.61937   0.43733   0.48467   1.000
    O185    O    0.65926   0.40911   0.59070   1.000
    O186    O    0.88156   0.06508   0.34840   1.000
    O187    O    0.84095   0.09206   0.24181   1.000
    O188    O    0.06401   0.10898   0.68122   1.000
    O189    O    0.15843   0.09261   0.58165   1.000
    O190    O    0.38021   0.44017   0.81955   1.000
    O191    O    0.33672   0.41500   0.92650   1.000
loop_
    _geom_bond_atom_site_label_1
    _geom_bond_atom_site_label_2
    _geom_bond_distance
    _geom_bond_site_symmetry_2
    _ccdc_geom_bond_type
    O148   C48       1.20822  1_554   S
    C111   C109      1.40327      .   S
    C111   C113      1.38988      .   S
    C111   H29       1.08728  1_554   S
    C51    C49       1.40448      .   S
    C51    C53       1.39144      .   S
    C51    H1        1.08827  1_554   S
    O172   C108      1.26176  1_554   S
    C56    O153      1.29284      .   S
    C56    C57       1.49466  1_554   S
    C56    O152      1.26176  1_554   S
    C100   O169      1.29126      .   S
    C100   C101      1.49941  1_554   S
    C100   O168      1.26498  1_554   S
    H31    C113      1.08871      .   S
    C49    C50       1.40218      .   S
    C49    C48       1.49944  1_554   S
    C109   C110      1.40194      .   S
    C109   C108      1.49474  1_554   S
    H3     C53       1.08877      .   S
    C113   C114      1.40265      .   S
    H25    C103      1.08836  1_554   S
    C53    C54       1.40311      .   S
    H5     C59       1.08741  1_554   S
    O167   C99       1.29408      .   S
    O157   C64       1.29024      .   S
    H23    C97       1.08827      .   S
    H8     C66       1.08880      .   S
    C50    H0        1.08910      .   S
    C50    C52       1.39179      .   S
    C110   H28       1.08909      .   S
    C110   C112      1.39088      .   S
    C114   C112      1.40391      .   S
    C114   C115      1.49502      .   S
    C54    C52       1.40431      .   S
    C54    C55       1.50003      .   S
    C99    O73       1.26097      .   S
    C99    C98       1.49959      .   S
    O174   C115      1.26316      .   S
    C64    O156      1.26462      .   S
    C64    C65       1.49884      .   S
    O150   C55       1.26430      .   S
    C52    H2        1.08865      .   S
    C112   H30       1.08836      .   S
    C97    C98       1.40332      .   S
    C97    C95       1.39126      .   S
    C66    C65       1.40385      .   S
    C66    C68       1.39155      .   S
    C115   O175      1.29172      .   S
    C55    O151      1.29167      .   S
    H21    C95       1.08851      .   S
    H10    C68       1.08822      .   S
    C98    C96       1.40339      .   S
    C65    C67       1.40321      .   S
    C95    C93       1.40331      .   S
    C68    C74       1.40287      .   S
    O187   C139      1.29156      .   S
    O163   C83       1.29148      .   S
    H42    C136      1.08848      .   S
    H14    C80       1.08865      .   S
    C96    H22       1.08830      .   S
    C96    C94       1.39147      .   S
    C67    H9        1.08850      .   S
    C67    C69       1.39120      .   S
    C93    C94       1.40384      .   S
    C93    C92       1.49876      .   S
    C74    C69       1.40356      .   S
    C74    C75       1.49931      .   S
    C83    O162      1.26444      .   S
    C83    C82       1.50010      .   S
    C139   O186      1.26302      .   S
    C139   C138      1.49491      .   S
    O71    C92       1.26458      .   S
    O158   C75       1.25989      .   S
    C94    H20       1.08857      .   S
    C69    H11       1.08824      .   S
    C136   C138      1.40390      .   S
    C136   C134      1.39057      .   S
    C80    C82       1.40433      .   S
    C80    C78       1.39127      .   S
    C92    O72       1.29023      .   S
    C75    O159      1.29498      .   S
    H40    C134      1.08843      .   S
    C138   C137      1.40257      .   S
    C82    C81       1.40311      .   S
    H12    C78       1.08871      .   S
    C134   C133      1.40282      .   S
    C78    C77       1.40296      .   S
    O165   C84       1.29286      .   S
    O181   C124      1.29164      .   S
    H17    C87       1.08786      .   S
    C81    H15       1.08860      .   S
    C81    C79       1.39157      .   S
    H37    C127      1.08868      .   S
    C137   H43       1.08860      .   S
    C137   C135      1.38988      .   S
    C133   C135      1.40320      .   S
    C133   C132      1.49489      .   S
    C77    C79       1.40439      .   S
    C77    C76       1.49968      .   S
    C124   O180      1.26452      .   S
    C124   C125      1.49971      .   S
    C84    O164      1.26208      .   S
    C84    C85       1.49484      .   S
    O184   C132      1.26235      .   S
    O160   C76       1.26446      .   S
    C79    H13       1.08868      .   S
    C135   H41       1.08787      .   S
    C87    C85       1.40314      .   S
    C87    C89       1.38993      .   S
    C127   C125      1.40444      .   S
    C127   C129      1.39163      .   S
    C132   O185      1.29172      .   S
    C76    O161      1.29106      .   S
    H19    C89       1.08869      .   S
    C125   C126      1.40299      .   S
    H39    C129      1.08880      .   S
    C85    C86       1.40280      .   S
    C89    C90       1.40261      .   S
    C129   C130      1.40299      .   S
    O179   C123      1.29434      .   S
    O189   C140      1.29135      .   S
    H35    C121      1.08831      .   S
    H44    C142      1.08097      .   S
    C126   H36       1.08861      .   S
    C126   C128      1.39127      .   S
    C86    H16       1.08825      .   S
    C86    C88       1.39047      .   S
    C130   C128      1.40441      .   S
    C130   C131      1.50017      .   S
    C90    C88       1.40375      .   S
    C90    C91       1.49481      .   S
    C123   O178      1.26075      .   S
    C123   C122      1.49919      .   S
    O166   C91       1.26300      .   S
    C140   O188      1.26418      .   S
    C140   C141      1.49930      .   S
    O182   C131      1.26490      .   S
    C128   H38       1.08848      .   S
    C88    H18       1.08845      .   S
    C121   C122      1.40318      .   S
    C121   C119      1.39147      .   S
    C142   C141      1.40952      .   S
    C142   C144      1.39404      .   S
    C91    O70       1.29054      .   S
    C131   O183      1.29164      .   S
    H33    C119      1.08849      .   S
    H46    C144      1.08825      .   S
    C122   C120      1.40350      .   S
    C141   C143      1.40330      .   S
    C119   C117      1.40341      .   S
    C144   C146      1.40346      .   S
    O155   C63       1.29184      .   S
    O171   C107      1.29186      .   S
    H6     C60       1.08825      .   S
    C120   H34       1.08819      .   S
    C120   C118      1.39136      .   S
    H26    C104      1.08870      .   S
    C143   H45       1.07966      .   S
    C143   C145      1.39179      .   S
    C117   C118      1.40381      .   S
    C117   C116      1.49897      .   S
    C146   C145      1.40340      .   S
    C146   C147      1.49941      .   S
    C107   O170      1.26426      .   S
    C107   C106      1.50000      .   S
    C63    O154      1.26283      .   S
    C63    C62       1.49498      .   S
    O176   C116      1.26429      .   S
    O190   C147      1.26088      .   S
    C118   H32       1.08856      .   S
    C145   H47       1.08822      .   S
    C60    C62       1.40376      .   S
    C60    C58       1.39051      .   S
    C104   C106      1.40426      .   S
    C104   C102      1.39139      .   S
    C116   O177      1.29082      .   S
    C147   O191      1.29428      .   S
    H4     C58       1.08852      .   S
    C62    C61       1.40282      .   S
    C106   C105      1.40306      .   S
    H24    C102      1.08866      .   S
    C58    C57       1.40269      .   S
    C102   C101      1.40291      .   S
    O173   C108      1.29274      .   S
    O149   C48       1.29115      .   S
    C105   H27       1.08886      .   S
    C105   C103      1.39152      .   S
    C61    H7        1.08863      .   S
    C61    C59       1.38991      .   S
    C57    C59       1.40326      .   S
    C101   C103      1.40446      .   S
