# CIF file generated by openbabel 2.4.90, see http://openbabel.sf.net
data_I
_chemical_name_common ''
_cell_length_a 15.583
_cell_length_b 17.778
_cell_length_c 18.307
_cell_angle_alpha 112.399
_cell_angle_beta 89.999
_cell_angle_gamma 89.946
_space_group_name_H-M_alt 'P 1'
_space_group_name_Hall 'P 1'
loop_
    _symmetry_equiv_pos_as_xyz
    x,y,z
loop_
    _atom_site_label
    _atom_site_type_symbol
    _atom_site_fract_x
    _atom_site_fract_y
    _atom_site_fract_z
    _atom_site_occupancy
    H0      H    0.50343   0.39374   0.02754   1.000
    H1      H    0.49495   0.39343   0.36302   1.000
    H2      H    0.49846   0.60345   0.30300   1.000
    H3      H    0.49970   0.60623   0.97262   1.000
    H4      H    0.50459   0.60668   0.63684   1.000
    H5      H    0.50236   0.39653   0.69660   1.000
    O6      O    0.50333   0.45269   0.04341   1.000
    O7      O    0.49692   0.45216   0.37751   1.000
    O8      O    0.49911   0.54477   0.28910   1.000
    O9      O    0.50003   0.54726   0.95650   1.000
    O10     O    0.50270   0.54794   0.62231   1.000
    O11     O    0.50147   0.45522   0.71060   1.000
loop_
    _geom_bond_atom_site_label_1
    _geom_bond_atom_site_label_2
    _geom_bond_distance
    _geom_bond_site_symmetry_2
    _ccdc_geom_bond_type
    H0     O6        0.97503      .   S
    O8     H2        0.97506      .   S
    H1     O7        0.97494      .   S
    O10    H4        0.97490      .   S
    H5     O11       0.97510      .   S
    O9     H3        0.97492      .   S
