# CIF file generated by openbabel 2.4.90, see http://openbabel.sf.net
data_I
_chemical_name_common ''
_cell_length_a 15.583
_cell_length_b 17.778
_cell_length_c 18.307
_cell_angle_alpha 112.399
_cell_angle_beta 89.999
_cell_angle_gamma 89.946
_space_group_name_H-M_alt 'P 1'
_space_group_name_Hall 'P 1'
loop_
    _symmetry_equiv_pos_as_xyz
    x,y,z
loop_
    _atom_site_label
    _atom_site_type_symbol
    _atom_site_fract_x
    _atom_site_fract_y
    _atom_site_fract_z
    _atom_site_occupancy
    Zn0     Zn   0.90067   0.00000   0.16639   1.000
    Zn1     Zn   0.50068   0.49779   0.16613   1.000
    Zn2     Zn   0.40376   0.50091   0.00296   1.000
    Zn3     Zn   0.59612   0.49775   0.33358   1.000
    Zn4     Zn   0.40056   0.49956   0.33311   1.000
    Zn5     Zn   0.00060   0.00232   0.33370   1.000
    Zn6     Zn   0.90360   0.99867   0.49695   1.000
    Zn7     Zn   0.90379   0.99742   0.83364   1.000
    Zn8     Zn   0.09934   0.99941   0.83368   1.000
    Zn9     Zn   0.49991   0.50218   0.83374   1.000
    Zn10    Zn   0.59975   0.49892   0.99692   1.000
    Zn11    Zn   0.40397   0.50204   0.66649   1.000
    Zn12    Zn   0.59951   0.50081   0.66636   1.000
    Zn13    Zn   0.99985   0.99773   0.66631   1.000
    Zn14    Zn   0.09962   0.00161   0.50318   1.000
    Zn15    Zn   0.00000   0.99995   0.10000   1.000
    Zn16    Zn   0.49997   0.50002   0.49993   1.000
    H17     H    0.99449   0.10683   0.13705   1.000
    H18     H    0.99911   0.89661   0.19670   1.000
    Zn19    Zn   0.09626   0.00259   0.16627   1.000
    H20     H    0.00000   0.10636   0.47244   1.000
    H21     H    0.00525   0.89301   0.86300   1.000
    H22     H    0.00000   0.10334   0.80300   1.000
    H23     H    0.00041   0.89388   0.52737   1.000
    O24     O    0.99680   0.04807   0.12229   1.000
    O25     O    0.99949   0.95527   0.21051   1.000
    O26     O    0.00270   0.04741   0.45660   1.000
    O27     O    0.00301   0.95177   0.87774   1.000
    O28     O    0.00000   0.04465   0.78951   1.000
    O29     O    0.00000   0.95286   0.54349   1.000
loop_
    _geom_bond_atom_site_label_1
    _geom_bond_atom_site_label_2
    _geom_bond_distance
    _geom_bond_site_symmetry_2
    _ccdc_geom_bond_type
    O24    H17       0.97489      .   S
    O24    Zn15      0.79663  1_645   S
    Zn0    O25       2.03553  1_545   S
    H18    O25       0.97503      .   S
    O26    H20       0.97589      .   S
    O26    Zn6       2.04248  1_445   S
    Zn6    O29       2.04267  1_655   S
    H23    O29       0.97503      .   S
    O28    H22       0.97639      .   S
    O28    Zn7       2.03095  1_445   S
    Zn8    O27       2.03578      .   S
    H21    O27       0.97489      .   S
    O24    Zn19      2.04895  1_655   S
    O24    Zn0       2.03814      .   S
    O25    Zn19      2.03930  1_665   S
    O25    Zn5       2.08529  1_665   S
    O26    Zn5       2.08119      .   S
    O26    Zn14      2.04900      .   S
    O27    Zn7       2.04888  1_455   S
    O28    Zn8       2.04707  1_545   S
    O28    Zn13      2.08541  1_445   S
    O29    Zn13      2.07967  1_455   S
    O29    Zn14      2.04828  1_565   S
