# CIF file generated by openbabel 2.4.90, see http://openbabel.sf.net
data_I
_chemical_name_common ''
_cell_length_a 15.583
_cell_length_b 17.778
_cell_length_c 18.307
_cell_angle_alpha 112.399
_cell_angle_beta 89.999
_cell_angle_gamma 89.946
_space_group_name_H-M_alt 'P 1'
_space_group_name_Hall 'P 1'
loop_
    _symmetry_equiv_pos_as_xyz
    x,y,z
loop_
    _atom_site_label
    _atom_site_type_symbol
    _atom_site_fract_x
    _atom_site_fract_y
    _atom_site_fract_z
    _atom_site_occupancy
    Zr0     Zr   0.50068   0.49779   0.16613   1.000
    Zr1     Zr   0.40376   0.50091   0.00296   1.000
    Zr2     Zr   0.59612   0.49775   0.33358   1.000
    Zr3     Zr   0.40056   0.49956   0.33311   1.000
    Zr4     Zr   0.49991   0.50218   0.83374   1.000
    Zr5     Zr   0.59975   0.49892   0.99692   1.000
    Zr6     Zr   0.40397   0.50204   0.66649   1.000
    Zr7     Zr   0.59951   0.50081   0.66636   1.000
    Zr8     Zr   0.49997   0.50002   0.49993   1.000
    N9      N    0.25135   0.24832   0.08313   1.000
    O10     O    0.34626   0.35725   0.12072   1.000
    O11     O    0.31108   0.35104   0.18917   1.000
    N12     N    0.74934   0.24778   0.08210   1.000
    O13     O    0.68941   0.35138   0.18845   1.000
    O14     O    0.64150   0.34541   0.12171   1.000
    N15     N    0.24886   0.74826   0.58376   1.000
    O16     O    0.34454   0.63975   0.54559   1.000
    O17     O    0.30976   0.64679   0.47741   1.000
    N18     N    0.26928   0.76619   0.25163   1.000
    O19     O    0.36904   0.65973   0.21259   1.000
    O20     O    0.32161   0.65643   0.14666   1.000
    N21     N    0.75014   0.74835   0.58268   1.000
    O22     O    0.64164   0.65152   0.54365   1.000
    O23     O    0.68994   0.64440   0.47728   1.000
    N24     N    0.75124   0.25160   0.41632   1.000
    O25     O    0.65546   0.36014   0.45431   1.000
    O26     O    0.69031   0.35328   0.52243   1.000
    N27     N    0.24995   0.25164   0.41723   1.000
    O28     O    0.35840   0.34849   0.45628   1.000
    O29     O    0.31015   0.35549   0.52270   1.000
    N30     N    0.76963   0.73366   0.24824   1.000
    O31     O    0.66538   0.63118   0.21086   1.000
    O32     O    0.70138   0.63765   0.14185   1.000
    N33     N    0.74890   0.75167   0.91626   1.000
    O34     O    0.65414   0.64268   0.87847   1.000
    O35     O    0.68909   0.64928   0.81008   1.000
    N36     N    0.73177   0.23341   0.74760   1.000
    O37     O    0.63192   0.34006   0.78703   1.000
    O38     O    0.68057   0.34343   0.85266   1.000
    N39     N    0.25073   0.75205   0.91745   1.000
    O40     O    0.35869   0.65442   0.87808   1.000
    O41     O    0.31068   0.64843   0.81137   1.000
    N42     N    0.23195   0.26645   0.75233   1.000
    O43     O    0.33601   0.36881   0.78949   1.000
    O44     O    0.30110   0.36220   0.85853   1.000
    Zr45    Zr   0.00024   0.99999   0.48094   1.000
    O46     O    0.90563   0.07440   0.39558   1.000
    O47     O    0.90503   0.92649   0.25170   1.000
    O48     O    0.09463   0.92538   0.58545   1.000
    O49     O    0.09527   0.07336   0.72910   1.000
    O50     O    0.09554   0.92815   0.25185   1.000
    O51     O    0.09497   0.07424   0.39607   1.000
    O52     O    0.90472   0.07180   0.72895   1.000
    O53     O    0.90531   0.92576   0.58481   1.000
    O54     O    0.10070   0.93124   0.41954   1.000
    O55     O    0.09036   0.07838   0.56416   1.000
    O56     O    0.07718   0.92866   0.55126   1.000
    O57     O    0.91804   0.06550   0.59567   1.000
    O58     O    0.92930   0.92284   0.55142   1.000
    O59     O    0.06609   0.07994   0.59700   1.000
    O60     O    0.08268   0.93440   0.38500   1.000
    O61     O    0.92320   0.07132   0.42982   1.000
    O62     O    0.07102   0.07718   0.42947   1.000
    O63     O    0.93473   0.92011   0.38408   1.000
    O64     O    0.91102   0.92163   0.41707   1.000
    O65     O    0.90038   0.06865   0.56112   1.000
    C66     C    0.50338   0.42322   0.03547   1.000
    O67     O    0.47846   0.45001   0.02933   1.000
    O68     O    0.50269   0.44923   0.07012   1.000
    O69     O    0.52746   0.44951   0.02782   1.000
    C70     C    0.49878   0.57411   0.29605   1.000
    O71     O    0.47431   0.54814   0.30358   1.000
    O72     O    0.49934   0.54770   0.26183   1.000
    O73     O    0.52320   0.54769   0.30369   1.000
    C74     C    0.49594   0.42280   0.37027   1.000
    O75     O    0.47234   0.44933   0.36279   1.000
    O76     O    0.52123   0.44888   0.36291   1.000
    O77     O    0.49719   0.44945   0.40449   1.000
    C78     C    0.50364   0.57731   0.62958   1.000
    O79     O    0.50249   0.55064   0.59535   1.000
    O80     O    0.52737   0.55084   0.63696   1.000
    O81     O    0.47849   0.55115   0.63699   1.000
    C82     C    0.50192   0.42587   0.70360   1.000
    O83     O    0.50130   0.45229   0.73789   1.000
    O84     O    0.47732   0.45225   0.69607   1.000
    O85     O    0.52620   0.45194   0.69604   1.000
    C86     C    0.49986   0.57675   0.96456   1.000
    O87     O    0.52488   0.54992   0.97064   1.000
    O88     O    0.47588   0.55042   0.97215   1.000
    O89     O    0.49992   0.55073   0.92984   1.000
loop_
    _geom_bond_atom_site_label_1
    _geom_bond_atom_site_label_2
    _geom_bond_distance
    _geom_bond_site_symmetry_2
    _ccdc_geom_bond_type
    N9     O10       2.32407      .   S
    Zr0    O10       3.33956      .   S
    N9     O11       2.29595      .   S
    Zr3    O11       3.25033      .   S
    N12    O13       2.30627      .   S
    Zr2    O13       3.26608      .   S
    N12    O14       2.32331      .   S
    Zr0    O14       3.33545      .   S
    N15    O16       2.32379      .   S
    Zr8    O16       3.33800      .   S
    N15    O17       2.29480      .   S
    Zr3    O17       3.24876      .   S
    N18    O19       2.33950      .   S
    Zr0    O19       3.36779      .   S
    N18    O20       2.30316      .   S
    Zr1    O20       3.26395      .   S
    N21    O22       2.32391      .   S
    Zr8    O22       3.33723      .   S
    N21    O23       2.30298      .   S
    Zr2    O23       3.26131      .   S
    N24    O25       2.32529      .   S
    Zr8    O25       3.34041      .   S
    N24    O26       2.29411      .   S
    Zr7    O26       3.24816      .   S
    N27    O28       2.32348      .   S
    Zr8    O28       3.33668      .   S
    N27    O29       2.30278      .   S
    Zr6    O29       3.26130      .   S
    N30    O31       2.34151      .   S
    Zr0    O31       3.37818      .   S
    N30    O32       2.30394      .   S
    Zr5    O32       3.26357  1_556   S
    N33    O34       2.32325      .   S
    Zr4    O34       3.33729      .   S
    N33    O35       2.29505      .   S
    Zr7    O35       3.24847      .   S
    N36    O37       2.34270      .   S
    Zr4    O37       3.37349      .   S
    N36    O38       2.30033      .   S
    Zr5    O38       3.26063      .   S
    N39    O40       2.32450      .   S
    Zr4    O40       3.33786      .   S
    N39    O41       2.30379      .   S
    Zr6    O41       3.26395      .   S
    N42    O43       2.33794      .   S
    Zr4    O43       3.36893      .   S
    N42    O44       2.30651      .   S
    Zr1    O44       3.26650  1_554   S
    Zr45   O46       2.81741  1_465   S
    N24    O46       3.86389      .   S
    Zr45   O47       4.16481  1_455   S
    N33    O47       6.22573  1_556   S
    Zr45   O48       3.08438      .   S
    N15    O48       3.95016      .   S
    Zr45   O49       4.47450  1_565   S
    N9     O49       6.49981  1_554   S
    Zr45   O50       4.16418      .   S
    N39    O50       6.20539  1_556   S
    Zr45   O51       2.81110  1_565   S
    N27    O51       3.87474      .   S
    Zr45   O52       4.47643  1_465   S
    N12    O52       6.48215  1_554   S
    Zr45   O53       3.07594  1_455   S
    N21    O53       3.96440      .   S
    Zr45   O54       2.03904      .   S
    N18    O54       4.25103      .   S
    Zr45   O55       2.14971  1_565   S
    N42    O55       4.37609      .   S
    Zr45   O56       2.43806      .   S
    N15    O56       4.38575      .   S
    Zr45   O57       2.35386  1_465   S
    N36    O57       4.32774      .   S
    Zr45   O58       2.47363  1_455   S
    N21    O58       4.37200      .   S
    Zr45   O59       2.29970  1_565   S
    N42    O59       4.31177      .   S
    Zr45   O60       2.12870      .   S
    N18    O60       4.21649      .   S
    Zr45   O61       2.19707  1_465   S
    N24    O61       4.25441      .   S
    Zr45   O62       2.23071  1_565   S
    N27    O62       4.24163      .   S
    Zr45   O63       2.07045  1_455   S
    N30    O63       4.18620      .   S
    Zr45   O64       2.00075  1_455   S
    N30    O64       4.20915      .   S
    Zr45   O65       2.16720  1_465   S
    N36    O65       4.41615      .   S
    C66    O67       0.65634      .   S
    Zr1    O67       1.65469      .   S
    C66    O68       0.62669      .   S
    Zr0    O68       1.63677      .   S
    C66    O69       0.65516      .   S
    Zr5    O69       1.65563  1_556   S
    C70    O71       0.65302      .   S
    Zr3    O71       1.64814      .   S
    C70    O72       0.62354      .   S
    Zr0    O72       1.63478      .   S
    C70    O73       0.65942      .   S
    Zr2    O73       1.65743      .   S
    C74    O75       0.65218      .   S
    Zr3    O75       1.64670      .   S
    C74    O76       0.66060      .   S
    Zr2    O76       1.66204      .   S
    C74    O77       0.62548      .   S
    Zr8    O77       1.63272      .   S
    C78    O79       0.62555      .   S
    Zr8    O79       1.63242      .   S
    C78    O80       0.65154      .   S
    Zr7    O80       1.64544      .   S
    C78    O81       0.66087      .   S
    Zr6    O81       1.66238      .   S
    C82    O83       0.62444      .   S
    Zr4    O83       1.63718      .   S
    C82    O84       0.65937      .   S
    Zr6    O84       1.65735      .   S
    C82    O85       0.65303      .   S
    Zr7    O85       1.64818      .   S
    C86    O87       0.65715      .   S
    Zr5    O87       1.65690      .   S
    C86    O88       0.65418      .   S
    Zr1    O88       1.65410  1_554   S
    C86    O89       0.62758      .   S
    Zr4    O89       1.63795      .   S
