# CIF file generated by openbabel 2.4.90, see http://openbabel.sf.net
data_I
_chemical_name_common ''
_cell_length_a 15.583
_cell_length_b 17.778
_cell_length_c 18.307
_cell_angle_alpha 112.399
_cell_angle_beta 89.999
_cell_angle_gamma 89.946
_space_group_name_H-M_alt 'P 1'
_space_group_name_Hall 'P 1'
loop_
    _symmetry_equiv_pos_as_xyz
    x,y,z
loop_
    _atom_site_label
    _atom_site_type_symbol
    _atom_site_fract_x
    _atom_site_fract_y
    _atom_site_fract_z
    _atom_site_occupancy
    Zr0     Zr   0.09626   0.00259   0.16627   1.000
    Zr1     Zr   0.90067   0.00000   0.16639   1.000
    Zr2     Zr   0.50068   0.49779   0.16613   1.000
    Zr3     Zr   0.40376   0.50091   0.00296   1.000
    Zr4     Zr   0.59612   0.49775   0.33358   1.000
    Zr5     Zr   0.40056   0.49956   0.33311   1.000
    Zr6     Zr   0.00060   0.00232   0.33370   1.000
    Zr7     Zr   0.90360   0.99867   0.49695   1.000
    Zr8     Zr   0.90379   0.99742   0.83364   1.000
    Zr9     Zr   0.09934   0.99941   0.83368   1.000
    Zr10    Zr   0.49991   0.50218   0.83374   1.000
    Zr11    Zr   0.59975   0.49892   0.99692   1.000
    Zr12    Zr   0.40397   0.50204   0.66649   1.000
    Zr13    Zr   0.59951   0.50081   0.66636   1.000
    Zr14    Zr   0.99985   0.99773   0.66631   1.000
    Zr15    Zr   0.09962   0.00161   0.50318   1.000
    Zr16    Zr   0.00000   0.99995   0.10000   1.000
    Zr17    Zr   0.49997   0.50002   0.49993   1.000
    Zr18    Zr   0.99449   0.10683   0.13705   1.000
    Zr19    Zr   0.99911   0.89661   0.19670   1.000
    Zr20    Zr   0.50343   0.39374   0.02754   1.000
    Zr21    Zr   0.49495   0.39343   0.36302   1.000
    Zr22    Zr   0.49846   0.60345   0.30300   1.000
    Zr23    Zr   0.00000   0.10636   0.47244   1.000
    Zr24    Zr   0.00525   0.89301   0.86300   1.000
    Zr25    Zr   0.00000   0.10334   0.80300   1.000
    Zr26    Zr   0.49970   0.60623   0.97262   1.000
    Zr27    Zr   0.50459   0.60668   0.63684   1.000
    Zr28    Zr   0.50236   0.39653   0.69660   1.000
    Zr29    Zr   0.00041   0.89388   0.52737   1.000
    Zr30    Zr   0.99680   0.04807   0.12229   1.000
    Zr31    Zr   0.99949   0.95527   0.21051   1.000
    Zr32    Zr   0.50333   0.45269   0.04341   1.000
    Zr33    Zr   0.49692   0.45216   0.37751   1.000
    Zr34    Zr   0.49911   0.54477   0.28910   1.000
    Zr35    Zr   0.00270   0.04741   0.45660   1.000
    Zr36    Zr   0.00301   0.95177   0.87774   1.000
    Zr37    Zr   0.00000   0.04465   0.78951   1.000
    Zr38    Zr   0.50003   0.54726   0.95650   1.000
    Zr39    Zr   0.50270   0.54794   0.62231   1.000
    Zr40    Zr   0.50147   0.45522   0.71060   1.000
    Zr41    Zr   0.00000   0.95286   0.54349   1.000
    O42     O    0.45354   0.47680   0.02319   1.000
    O43     O    0.50338   0.42322   0.03547   1.000
    O44     O    0.99564   0.07745   0.12967   1.000
    O45     O    0.99840   0.02401   0.11115   1.000
    O46     O    0.95008   0.97764   0.18845   1.000
    O47     O    0.99930   0.92594   0.20361   1.000
    O48     O    0.49878   0.57411   0.29605   1.000
    O49     O    0.44984   0.52217   0.31111   1.000
    O50     O    0.44874   0.47586   0.35531   1.000
    O51     O    0.49594   0.42280   0.37027   1.000
    O52     O    0.00135   0.07689   0.46452   1.000
    O53     O    0.95315   0.02304   0.47678   1.000
    O54     O    0.95180   0.97576   0.52022   1.000
    O55     O    0.00020   0.92337   0.53543   1.000
    O56     O    0.50364   0.57731   0.62958   1.000
    O57     O    0.55111   0.52437   0.64434   1.000
    O58     O    0.55049   0.47801   0.68848   1.000
    O59     O    0.50192   0.42587   0.70360   1.000
    O60     O    0.00000   0.07400   0.79626   1.000
    O61     O    0.95189   0.02104   0.81158   1.000
    O62     O    0.05117   0.97559   0.85571   1.000
    O63     O    0.00413   0.92239   0.87037   1.000
    O64     O    0.49986   0.57675   0.96456   1.000
    O65     O    0.54989   0.52309   0.97671   1.000
    O66     O    0.04653   0.02533   0.14428   1.000
    O67     O    0.94873   0.02403   0.14434   1.000
    O68     O    0.04788   0.97893   0.18839   1.000
    O69     O    0.00005   0.97880   0.27210   1.000
    O70     O    0.50201   0.47524   0.10477   1.000
    O71     O    0.55154   0.47581   0.02017   1.000
    O72     O    0.54652   0.47496   0.35555   1.000
    O73     O    0.49845   0.47609   0.43872   1.000
    O74     O    0.49989   0.52128   0.22762   1.000
    O75     O    0.54761   0.52126   0.31134   1.000
    O76     O    0.00165   0.02487   0.39515   1.000
    O77     O    0.05116   0.02451   0.47989   1.000
    O78     O    0.95340   0.97460   0.85569   1.000
    O79     O    0.04967   0.02203   0.81160   1.000
    O80     O    0.99992   0.02119   0.72791   1.000
    O81     O    0.45189   0.52409   0.97973   1.000
    O82     O    0.49997   0.52472   0.89512   1.000
    O83     O    0.45333   0.52499   0.64440   1.000
    O84     O    0.50133   0.52398   0.56112   1.000
    O85     O    0.50069   0.47870   0.77217   1.000
    O86     O    0.45272   0.47863   0.68855   1.000
    O87     O    0.99992   0.97529   0.60490   1.000
    O88     O    0.04981   0.97723   0.52333   1.000
    N89     N    0.25135   0.24832   0.08313   1.000
    O90     O    0.19031   0.14674   0.97726   1.000
    O91     O    0.34626   0.35725   0.12072   1.000
    O92     O    0.31108   0.35104   0.18917   1.000
    N93     N    0.74934   0.24778   0.08210   1.000
    O94     O    0.68941   0.35138   0.18845   1.000
    O95     O    0.80921   0.14361   0.97697   1.000
    O96     O    0.64150   0.34541   0.12171   1.000
    N97     N    0.24886   0.74826   0.58376   1.000
    O98     O    0.34454   0.63975   0.54559   1.000
    O99     O    0.30976   0.64679   0.47741   1.000
    O100    O    0.18903   0.85078   0.68995   1.000
    O101    O    0.15411   0.85732   0.62158   1.000
    N102    N    0.26928   0.76619   0.25163   1.000
    O103    O    0.36904   0.65973   0.21259   1.000
    O104    O    0.32161   0.65643   0.14666   1.000
    O105    O    0.16512   0.86881   0.28906   1.000
    O106    O    0.20116   0.86248   0.35813   1.000
    N107    N    0.75014   0.74835   0.58268   1.000
    O108    O    0.64164   0.65152   0.54365   1.000
    O109    O    0.68994   0.64440   0.47728   1.000
    O110    O    0.85837   0.84569   0.62189   1.000
    O111    O    0.81038   0.85154   0.68868   1.000
    N112    N    0.75124   0.25160   0.41632   1.000
    O113    O    0.65546   0.36014   0.45431   1.000
    O114    O    0.69031   0.35328   0.52243   1.000
    O115    O    0.84616   0.14265   0.37869   1.000
    O116    O    0.81103   0.14881   0.31021   1.000
    N117    N    0.24995   0.25164   0.41723   1.000
    O118    O    0.35840   0.34849   0.45628   1.000
    O119    O    0.31015   0.35549   0.52270   1.000
    O120    O    0.14179   0.15436   0.37799   1.000
    O121    O    0.18970   0.14848   0.31120   1.000
    N122    N    0.76963   0.73366   0.24824   1.000
    O123    O    0.86922   0.84023   0.28723   1.000
    O124    O    0.82181   0.84327   0.35319   1.000
    O125    O    0.66538   0.63118   0.21086   1.000
    O126    O    0.70138   0.63765   0.14185   1.000
    N127    N    0.74890   0.75167   0.91626   1.000
    O128    O    0.80983   0.85299   0.02246   1.000
    O129    O    0.65414   0.64268   0.87847   1.000
    O130    O    0.68909   0.64928   0.81008   1.000
    N131    N    0.73177   0.23341   0.74760   1.000
    O132    O    0.63192   0.34006   0.78703   1.000
    O133    O    0.68057   0.34343   0.85266   1.000
    O134    O    0.83585   0.13100   0.71039   1.000
    O135    O    0.80052   0.13731   0.64130   1.000
    N136    N    0.25073   0.75205   0.91745   1.000
    O137    O    0.19083   0.85631   0.02276   1.000
    O138    O    0.35869   0.65442   0.87808   1.000
    O139    O    0.31068   0.64843   0.81137   1.000
    N140    N    0.23195   0.26645   0.75233   1.000
    O141    O    0.13194   0.15990   0.71305   1.000
    O142    O    0.18049   0.15678   0.64737   1.000
    O143    O    0.33601   0.36881   0.78949   1.000
    O144    O    0.30110   0.36220   0.85853   1.000
loop_
    _geom_bond_atom_site_label_1
    _geom_bond_atom_site_label_2
    _geom_bond_distance
    _geom_bond_site_symmetry_2
    _ccdc_geom_bond_type
    Zr3    O42       1.02127      .   S
    Zr32   O42       1.02127      .   S
    Zr20   O43       0.48752      .   S
    Zr32   O43       0.48752      .   S
    Zr30   O44       0.48744      .   S
    Zr18   O44       0.48744      .   S
    Zr30   O45       0.39832      .   S
    Zr16   O45       0.39832  1_465   S
    Zr1    O46       1.01776  1_545   S
    Zr31   O46       1.01776      .   S
    Zr19   O47       0.48752      .   S
    Zr31   O47       0.48752      .   S
    Zr34   O48       0.48753      .   S
    Zr22   O48       0.48753      .   S
    Zr34   O49       1.01846      .   S
    Zr5    O49       1.01846      .   S
    Zr5    O50       1.01798      .   S
    Zr33   O50       1.01798      .   S
    Zr21   O51       0.48747      .   S
    Zr33   O51       0.48747      .   S
    Zr35   O52       0.48795      .   S
    Zr23   O52       0.48795      .   S
    Zr35   O53       1.02124  1_455   S
    Zr7    O53       1.02124  1_565   S
    Zr7    O54       1.02134      .   S
    Zr41   O54       1.02134  1_455   S
    Zr29   O55       0.48751      .   S
    Zr41   O55       0.48751      .   S
    Zr39   O56       0.48745      .   S
    Zr27   O56       0.48745      .   S
    Zr39   O57       1.01743      .   S
    Zr13   O57       1.01743      .   S
    Zr13   O58       1.01850      .   S
    Zr40   O58       1.01850      .   S
    Zr28   O59       0.48755      .   S
    Zr40   O59       0.48755      .   S
    Zr37   O60       0.48820      .   S
    Zr25   O60       0.48820      .   S
    Zr37   O61       1.01548  1_455   S
    Zr8    O61       1.01548  1_565   S
    Zr9    O62       1.01789      .   S
    Zr36   O62       1.01789      .   S
    Zr24   O63       0.48744      .   S
    Zr36   O63       0.48744      .   S
    Zr38   O64       0.48746      .   S
    Zr26   O64       0.48746      .   S
    Zr38   O65       1.02261      .   S
    Zr11   O65       1.02261      .   S
    Zr30   O66       1.02448  1_655   S
    Zr0    O66       1.02448      .   S
    Zr30   O67       1.01907      .   S
    Zr1    O67       1.01907      .   S
    Zr31   O68       1.01965  1_655   S
    Zr0    O68       1.01965  1_545   S
    Zr31   O69       1.04265  1_655   S
    Zr6    O69       1.04265  1_545   S
    Zr32   O70       1.03912      .   S
    Zr2    O70       1.03912      .   S
    Zr32   O71       1.02380      .   S
    Zr11   O71       1.02380  1_556   S
    Zr33   O72       1.02372      .   S
    Zr4    O72       1.02372      .   S
    Zr33   O73       1.03631      .   S
    Zr17   O73       1.03631      .   S
    Zr34   O74       1.04081      .   S
    Zr2    O74       1.04081      .   S
    Zr34   O75       1.02027      .   S
    Zr4    O75       1.02027      .   S
    Zr35   O76       1.04060      .   S
    Zr6    O76       1.04060      .   S
    Zr35   O77       1.02450      .   S
    Zr15   O77       1.02450      .   S
    Zr36   O78       1.02444  1_455   S
    Zr8    O78       1.02444      .   S
    Zr37   O79       1.02353      .   S
    Zr9    O79       1.02353  1_565   S
    Zr37   O80       1.04271  1_455   S
    Zr14   O80       1.04271  1_565   S
    Zr38   O81       1.02339      .   S
    Zr3    O81       1.02339  1_554   S
    Zr38   O82       1.03927      .   S
    Zr10   O82       1.03927      .   S
    Zr39   O83       1.02373      .   S
    Zr12   O83       1.02373      .   S
    Zr39   O84       1.03592      .   S
    Zr17   O84       1.03592      .   S
    Zr40   O85       1.04226      .   S
    Zr10   O85       1.04226      .   S
    Zr40   O86       1.02025      .   S
    Zr12   O86       1.02025      .   S
    Zr41   O87       1.03983  1_455   S
    Zr14   O87       1.03983      .   S
    Zr41   O88       1.02414      .   S
    Zr15   O88       1.02414  1_545   S
    N89    O90       2.29313  1_554   S
    Zr9    O90       3.24639  1_565   S
    N89    O91       2.32407      .   S
    Zr2    O91       3.33956      .   S
    N89    O92       2.29595      .   S
    Zr5    O92       3.25033      .   S
    N93    O94       2.30627      .   S
    Zr4    O94       3.26608      .   S
    N93    O95       2.29891  1_554   S
    Zr8    O95       3.25677  1_565   S
    N93    O96       2.32331      .   S
    Zr2    O96       3.33545      .   S
    N97    O98       2.32379      .   S
    Zr17   O98       3.33800      .   S
    N97    O99       2.29480      .   S
    Zr5    O99       3.24876      .   S
    N97    O100      2.29487      .   S
    Zr9    O100      3.24855      .   S
    N97    O101      2.32162      .   S
    Zr14   O101      3.33327  1_655   S
    N102   O103      2.33950      .   S
    Zr2    O103      3.36779      .   S
    N102   O104      2.30316      .   S
    Zr3    O104      3.26395      .   S
    N102   O105      2.33972      .   S
    Zr6    O105      3.37406  1_545   S
    N102   O106      2.30475      .   S
    Zr15   O106      3.26489  1_545   S
    N107   O108      2.32391      .   S
    Zr17   O108      3.33723      .   S
    N107   O109      2.30298      .   S
    Zr4    O109      3.26131      .   S
    N107   O110      2.32666      .   S
    Zr14   O110      3.34117      .   S
    N107   O111      2.30276      .   S
    Zr8    O111      3.26336      .   S
    N112   O113      2.32529      .   S
    Zr17   O113      3.34041      .   S
    N112   O114      2.29411      .   S
    Zr13   O114      3.24816      .   S
    N112   O115      2.32193      .   S
    Zr6    O115      3.33416  1_455   S
    N112   O116      2.29607      .   S
    Zr1    O116      3.25074      .   S
    N117   O118      2.32348      .   S
    Zr17   O118      3.33668      .   S
    N117   O119      2.30278      .   S
    Zr12   O119      3.26130      .   S
    N117   O120      2.32518      .   S
    Zr6    O120      3.33846      .   S
    N117   O121      2.30288      .   S
    Zr0    O121      3.26340      .   S
    N122   O123      2.34136      .   S
    Zr6    O123      3.37085  1_445   S
    N122   O124      2.30208      .   S
    Zr7    O124      3.26324      .   S
    N122   O125      2.34151      .   S
    Zr2    O125      3.37818      .   S
    N122   O126      2.30394      .   S
    Zr11   O126      3.26357  1_556   S
    N127   O128      2.29355  1_556   S
    Zr1    O128      3.24594  1_545   S
    N127   O129      2.32325      .   S
    Zr10   O129      3.33729      .   S
    N127   O130      2.29505      .   S
    Zr13   O130      3.24847      .   S
    N131   O132      2.34270      .   S
    Zr10   O132      3.37349      .   S
    N131   O133      2.30033      .   S
    Zr11   O133      3.26063      .   S
    N131   O134      2.33632      .   S
    Zr14   O134      3.36562  1_565   S
    N131   O135      2.30579      .   S
    Zr7    O135      3.26599  1_565   S
    N136   O137      2.30147  1_556   S
    Zr0    O137      3.25933  1_545   S
    N136   O138      2.32450      .   S
    Zr10   O138      3.33786      .   S
    N136   O139      2.30379      .   S
    Zr12   O139      3.26395      .   S
    N140   O141      2.34552      .   S
    Zr14   O141      3.37827  1_665   S
    N140   O142      2.29879      .   S
    Zr15   O142      3.25933      .   S
    N140   O143      2.33794      .   S
    Zr10   O143      3.36893      .   S
    N140   O144      2.30651      .   S
    Zr3    O144      3.26650  1_554   S
