# CIF file generated by openbabel 2.4.90, see http://openbabel.sf.net
data_I
_chemical_name_common ''
_cell_length_a 18.665
_cell_length_b 19.524
_cell_length_c 19.476
_cell_angle_alpha 122.217
_cell_angle_beta 89.958
_cell_angle_gamma 90.118
_space_group_name_H-M_alt 'P 1'
_space_group_name_Hall 'P 1'
loop_
    _symmetry_equiv_pos_as_xyz
    x,y,z
loop_
    _atom_site_label
    _atom_site_type_symbol
    _atom_site_fract_x
    _atom_site_fract_y
    _atom_site_fract_z
    _atom_site_occupancy
    H0      H    0.12617   0.26429   0.20979   1.000
    H1      H    0.12616   0.26429   0.70970   1.000
    H2      H    0.12616   0.76428   0.20978   1.000
    H3      H    0.12616   0.76428   0.70978   1.000
    H4      H    0.62616   0.26429   0.20979   1.000
    H5      H    0.62615   0.26429   0.70970   1.000
    H6      H    0.62615   0.76428   0.20978   1.000
    H7      H    0.62615   0.76428   0.70978   1.000
    H8      H    0.21954   0.15891   0.39577   1.000
    H9      H    0.21954   0.15891   0.89577   1.000
    H10     H    0.21954   0.65890   0.39577   1.000
    H11     H    0.21953   0.65890   0.89570   1.000
    H12     H    0.71953   0.15891   0.39577   1.000
    H13     H    0.71953   0.15891   0.89577   1.000
    H14     H    0.71952   0.65890   0.39577   1.000
    H15     H    0.71952   0.65890   0.89570   1.000
    H16     H    0.12576   0.17850   0.40630   1.000
    H17     H    0.12576   0.17850   0.90631   1.000
    H18     H    0.12576   0.67849   0.40631   1.000
    H19     H    0.12576   0.67849   0.90631   1.000
    H20     H    0.62575   0.17850   0.40630   1.000
    H21     H    0.62575   0.17850   0.90631   1.000
    H22     H    0.62575   0.67849   0.40631   1.000
    H23     H    0.62574   0.67849   0.90631   1.000
    H24     H    0.30204   0.29622   0.47342   1.000
    H25     H    0.30203   0.29622   0.97342   1.000
    H26     H    0.30203   0.79621   0.47342   1.000
    H27     H    0.30203   0.79621   0.97342   1.000
    H28     H    0.80203   0.29622   0.47342   1.000
    H29     H    0.80202   0.29622   0.97342   1.000
    H30     H    0.80202   0.79621   0.47342   1.000
    H31     H    0.80202   0.79621   0.97342   1.000
    H32     H    0.28751   0.16053   0.27642   1.000
    H33     H    0.28751   0.16052   0.77640   1.000
    H34     H    0.28751   0.66052   0.27641   1.000
    H35     H    0.28750   0.66052   0.77641   1.000
    H36     H    0.78750   0.16052   0.27642   1.000
    H37     H    0.78750   0.16052   0.77640   1.000
    H38     H    0.78750   0.66052   0.27641   1.000
    H39     H    0.78749   0.66052   0.77641   1.000
    H40     H    0.29741   0.04459   0.13355   1.000
    H41     H    0.29741   0.04458   0.63354   1.000
    H42     H    0.29740   0.54458   0.13354   1.000
    H43     H    0.29740   0.54458   0.63355   1.000
    H44     H    0.79740   0.04459   0.13350   1.000
    H45     H    0.79739   0.04459   0.63354   1.000
    H46     H    0.79739   0.54458   0.13354   1.000
    H47     H    0.79739   0.54458   0.63350   1.000
    H48     H    0.38340   0.05203   0.09831   1.000
    H49     H    0.38340   0.05203   0.59830   1.000
    H50     H    0.38339   0.55202   0.09830   1.000
    H51     H    0.38339   0.55202   0.59831   1.000
    H52     H    0.88339   0.05203   0.09831   1.000
    H53     H    0.88338   0.05203   0.59831   1.000
    H54     H    0.88338   0.55202   0.09830   1.000
    H55     H    0.88338   0.55202   0.59831   1.000
    H56     H    0.14401   0.32184   0.00317   1.000
    H57     H    0.14401   0.32184   0.50317   1.000
    H58     H    0.14400   0.82183   0.50316   1.000
    H59     H    0.14400   0.82183   0.00000   1.000
    H60     H    0.64400   0.32184   0.00317   1.000
    H61     H    0.64400   0.32184   0.50317   1.000
    H62     H    0.64399   0.82183   0.50316   1.000
    H63     H    0.64399   0.82183   0.00000   1.000
    H64     H    0.34288   0.42944   0.45661   1.000
    H65     H    0.34287   0.42944   0.95660   1.000
    H66     H    0.34287   0.92943   0.45661   1.000
    H67     H    0.34287   0.92943   0.95661   1.000
    H68     H    0.84286   0.42944   0.45661   1.000
    H69     H    0.84286   0.42944   0.95660   1.000
    H70     H    0.84286   0.92943   0.45661   1.000
    H71     H    0.84286   0.92943   0.95660   1.000
    H72     H    0.36620   0.40921   0.03132   1.000
    H73     H    0.36619   0.40921   0.53132   1.000
    H74     H    0.36619   0.90921   0.03132   1.000
    H75     H    0.36619   0.90920   0.53132   1.000
    H76     H    0.86619   0.40921   0.03132   1.000
    H77     H    0.86618   0.40921   0.53132   1.000
    H78     H    0.86618   0.90921   0.03132   1.000
    H79     H    0.86618   0.90920   0.53132   1.000
    H80     H    0.33204   0.07477   0.00498   1.000
    H81     H    0.33203   0.07476   0.50498   1.000
    H82     H    0.33203   0.57476   0.00498   1.000
    H83     H    0.33203   0.57476   0.50498   1.000
    H84     H    0.58230   0.92523   0.99480   1.000
    H85     H    0.49911   0.44362   0.47639   1.000
    H86     H    0.49910   0.44362   0.97630   1.000
    H87     H    0.49910   0.94361   0.47638   1.000
    H88     H    0.83202   0.07477   0.00498   1.000
    H89     H    0.83202   0.07476   0.50498   1.000
    H90     H    0.83202   0.57476   0.00498   1.000
    H91     H    0.83202   0.57476   0.50498   1.000
    H92     H    0.24897   0.05605   0.02375   1.000
    H93     H    0.24896   0.05605   0.52375   1.000
    H94     H    0.24896   0.55604   0.02375   1.000
    H95     H    0.24896   0.55604   0.52375   1.000
    H96     H    0.74895   0.05605   0.02375   1.000
    H97     H    0.74895   0.05605   0.52375   1.000
    H98     H    0.74895   0.55604   0.02375   1.000
    H99     H    0.74895   0.55604   0.52375   1.000
    H100    H    0.37590   0.23589   0.29030   1.000
    H101    H    0.37589   0.23589   0.79036   1.000
    H102    H    0.37589   0.73588   0.29036   1.000
    H103    H    0.37589   0.73588   0.79036   1.000
    H104    H    0.87589   0.23589   0.29030   1.000
    H105    H    0.87588   0.23589   0.79036   1.000
    H106    H    0.87588   0.73588   0.29036   1.000
    H107    H    0.87588   0.73588   0.79036   1.000
    H108    H    0.47003   0.34092   0.10411   1.000
    H109    H    0.47003   0.34092   0.60410   1.000
    H110    H    0.47003   0.84091   0.10410   1.000
    H111    H    0.47003   0.84091   0.60410   1.000
    H112    H    0.97002   0.34092   0.10411   1.000
    H113    H    0.97002   0.34092   0.60410   1.000
    H114    H    0.97002   0.84091   0.10410   1.000
    H115    H    0.97001   0.84091   0.60410   1.000
    C116    C    0.19048   0.28207   0.48808   1.000
    C117    C    0.19048   0.28207   0.98808   1.000
    C118    C    0.19048   0.78206   0.48808   1.000
    C119    C    0.19048   0.78206   0.98808   1.000
    C120    C    0.69047   0.28207   0.48808   1.000
    H121    H    0.37619   0.32139   0.09368   1.000
    H122    H    0.37618   0.32139   0.59360   1.000
    H123    H    0.37618   0.82138   0.09367   1.000
    H124    H    0.37618   0.82138   0.59367   1.000
    H125    H    0.87618   0.32139   0.09368   1.000
    H126    H    0.87617   0.32139   0.59367   1.000
    H127    H    0.87617   0.82138   0.09367   1.000
    H128    H    0.87617   0.82138   0.59367   1.000
    H129    H    0.05201   0.20394   0.02682   1.000
    H130    H    0.05200   0.20393   0.52682   1.000
    H131    H    0.05200   0.70393   0.02682   1.000
    H132    H    0.05200   0.70393   0.52680   1.000
    H133    H    0.55200   0.20394   0.02682   1.000
    H134    H    0.55199   0.20393   0.52682   1.000
    H135    H    0.55199   0.70393   0.02682   1.000
    H136    H    0.55199   0.70393   0.52680   1.000
    H137    H    0.03801   0.33909   0.22333   1.000
    H138    H    0.03801   0.33909   0.72333   1.000
    H139    H    0.03801   0.83908   0.22332   1.000
    H140    H    0.03801   0.83908   0.72330   1.000
    H141    H    0.53800   0.33909   0.22333   1.000
    H142    H    0.53800   0.33909   0.72333   1.000
    H143    H    0.53800   0.83908   0.22332   1.000
    H144    H    0.53800   0.83908   0.72332   1.000
    H145    H    0.04721   0.45548   0.36653   1.000
    H146    H    0.04721   0.45548   0.86653   1.000
    H147    H    0.04720   0.95547   0.36653   1.000
    H148    H    0.04720   0.95547   0.86653   1.000
    H149    H    0.54720   0.45548   0.36653   1.000
    H150    H    0.54720   0.45548   0.86653   1.000
    H151    H    0.54720   0.95547   0.36653   1.000
    H152    H    0.54719   0.95547   0.86653   1.000
    H153    H    0.13330   0.44853   0.40172   1.000
    H154    H    0.13330   0.44853   0.90172   1.000
    H155    H    0.13330   0.94852   0.40172   1.000
    H156    H    0.13330   0.94853   0.90172   1.000
    H157    H    0.63329   0.44853   0.40172   1.000
    H158    H    0.63329   0.44853   0.90172   1.000
    H159    H    0.63329   0.94852   0.40172   1.000
    H160    H    0.63329   0.94852   0.90172   1.000
    H161    H    0.39394   0.17796   0.49688   1.000
    H162    H    0.39394   0.17796   0.99688   1.000
    H163    H    0.39393   0.67795   0.99688   1.000
    H164    H    0.39393   0.67795   0.49688   1.000
    H165    H    0.89393   0.17796   0.99688   1.000
    H166    H    0.89393   0.17796   0.49688   1.000
    H167    H    0.89392   0.67795   0.99688   1.000
    H168    H    0.89392   0.67795   0.49688   1.000
    H169    H    0.09257   0.07090   0.04353   1.000
    H170    H    0.09257   0.07090   0.54352   1.000
    H171    H    0.09257   0.57090   0.04352   1.000
    H172    H    0.09256   0.57089   0.54352   1.000
    H173    H    0.59256   0.07090   0.04353   1.000
    H174    H    0.59256   0.07090   0.54352   1.000
    H175    H    0.59256   0.57090   0.04350   1.000
    H176    H    0.59255   0.57089   0.54352   1.000
    H177    H    0.11613   0.09119   0.46887   1.000
    H178    H    0.11613   0.09119   0.96888   1.000
    H179    H    0.11613   0.59118   0.46887   1.000
    H180    H    0.11612   0.59118   0.96887   1.000
    H181    H    0.61612   0.09119   0.46887   1.000
    H182    H    0.61612   0.09119   0.96888   1.000
    H183    H    0.61611   0.59118   0.46880   1.000
    H184    H    0.61611   0.59118   0.96887   1.000
    H185    H    0.08232   0.42524   0.49489   1.000
    H186    H    0.08232   0.42524   0.99480   1.000
    H187    H    0.08232   0.92523   0.49488   1.000
    H188    H    0.08231   0.92523   0.99489   1.000
    H189    H    0.58231   0.42524   0.49489   1.000
    H190    H    0.58231   0.42524   0.99480   1.000
    H191    H    0.58231   0.92523   0.49480   1.000
    N192    N    0.50334   0.17381   0.51100   1.000
    N193    N    0.50334   0.67380   0.01100   1.000
    N194    N    0.50333   0.67380   0.51100   1.000
    N195    N    0.47035   0.28968   0.27749   1.000
    N196    N    0.47034   0.28968   0.77749   1.000
    N197    N    0.47034   0.78967   0.27749   1.000
    N198    N    0.47034   0.78967   0.77749   1.000
    N199    N    0.97033   0.28968   0.27749   1.000
    H200    H    0.49910   0.94361   0.97638   1.000
    H201    H    0.99910   0.44362   0.47639   1.000
    H202    H    0.99909   0.44362   0.97630   1.000
    H203    H    0.99909   0.94361   0.47638   1.000
    H204    H    0.99909   0.94361   0.97638   1.000
    C205    C    0.15490   0.24458   0.24454   1.000
    C206    C    0.15490   0.24457   0.74454   1.000
    C207    C    0.15490   0.74457   0.24454   1.000
    C208    C    0.15489   0.74457   0.74454   1.000
    C209    C    0.65489   0.24457   0.24454   1.000
    C210    C    0.65489   0.24457   0.74454   1.000
    C211    C    0.65489   0.74457   0.24454   1.000
    C212    C    0.65488   0.74457   0.74454   1.000
    C213    C    0.17823   0.20291   0.40410   1.000
    C214    C    0.17822   0.20291   0.90410   1.000
    C215    C    0.17822   0.70290   0.40410   1.000
    C216    C    0.17822   0.70290   0.90400   1.000
    C217    C    0.67822   0.20291   0.40410   1.000
    C218    C    0.67821   0.20291   0.90410   1.000
    C219    C    0.67821   0.70290   0.40410   1.000
    C220    C    0.67821   0.70290   0.90400   1.000
    C221    C    0.23763   0.18991   0.27854   1.000
    C222    C    0.23762   0.18991   0.77854   1.000
    C223    C    0.23762   0.68990   0.27854   1.000
    C224    C    0.23762   0.68990   0.77854   1.000
    C225    C    0.73762   0.18991   0.27854   1.000
    C226    C    0.73761   0.18991   0.77854   1.000
    C227    C    0.73761   0.68990   0.27854   1.000
    C228    C    0.73761   0.68990   0.77854   1.000
    C229    C    0.18241   0.21270   0.33336   1.000
    C230    C    0.18241   0.21269   0.83336   1.000
    C231    C    0.18240   0.71269   0.33336   1.000
    C232    C    0.18240   0.71269   0.83336   1.000
    C233    C    0.68240   0.21270   0.33336   1.000
    C234    C    0.68240   0.21269   0.83336   1.000
    C235    C    0.68239   0.71269   0.33336   1.000
    C236    C    0.68239   0.71269   0.83336   1.000
    C237    C    0.32805   0.03152   0.07971   1.000
    C238    C    0.32805   0.03151   0.57970   1.000
    C239    C    0.32805   0.53151   0.07970   1.000
    C240    C    0.32804   0.53151   0.57971   1.000
    C241    C    0.82804   0.03152   0.07971   1.000
    C242    C    0.82804   0.03152   0.57971   1.000
    C243    C    0.82804   0.53151   0.07970   1.000
    C244    C    0.82803   0.53151   0.57971   1.000
    C245    C    0.69047   0.28207   0.98808   1.000
    C246    C    0.69047   0.78206   0.48808   1.000
    C247    C    0.69046   0.78206   0.98808   1.000
    C248    C    0.32654   0.44062   0.01615   1.000
    C249    C    0.32654   0.44062   0.51615   1.000
    C250    C    0.32654   0.94062   0.01615   1.000
    C251    C    0.32653   0.94061   0.51615   1.000
    C252    C    0.82653   0.44062   0.01615   1.000
    C253    C    0.82653   0.44062   0.51615   1.000
    C254    C    0.82652   0.94062   0.01615   1.000
    C255    C    0.82652   0.94061   0.51615   1.000
    C256    C    0.25255   0.40376   0.00880   1.000
    C257    C    0.25255   0.40377   0.50881   1.000
    C258    C    0.25254   0.90376   0.00881   1.000
    C259    C    0.25254   0.90375   0.50880   1.000
    C260    C    0.75254   0.40377   0.00881   1.000
    C261    C    0.75253   0.40376   0.50881   1.000
    C262    C    0.75253   0.90376   0.00881   1.000
    C263    C    0.75253   0.90375   0.50880   1.000
    C264    C    0.40482   0.25549   0.25550   1.000
    C265    C    0.40481   0.25549   0.75553   1.000
    C266    C    0.40481   0.75548   0.25553   1.000
    C267    C    0.40481   0.75548   0.75553   1.000
    C268    C    0.90481   0.25549   0.25553   1.000
    C269    C    0.90480   0.25549   0.75553   1.000
    C270    C    0.90480   0.75548   0.25553   1.000
    C271    C    0.90480   0.75548   0.75553   1.000
    C272    C    0.42854   0.29696   0.09580   1.000
    C273    C    0.42853   0.29696   0.59586   1.000
    C274    C    0.42853   0.79695   0.09586   1.000
    C275    C    0.42853   0.79695   0.59586   1.000
    C276    C    0.92853   0.29696   0.09580   1.000
    C277    C    0.92852   0.29696   0.59586   1.000
    C278    C    0.92852   0.79695   0.09586   1.000
    C279    C    0.92852   0.79695   0.59586   1.000
    C280    C    0.48793   0.30988   0.22133   1.000
    C281    C    0.48793   0.30988   0.72133   1.000
    C282    C    0.48792   0.80987   0.22133   1.000
    C283    C    0.48792   0.80987   0.72133   1.000
    C284    C    0.98792   0.30988   0.22133   1.000
    C285    C    0.98791   0.30988   0.72133   1.000
    C286    C    0.98791   0.80987   0.22133   1.000
    C287    C    0.98791   0.80987   0.72133   1.000
    C288    C    0.43263   0.28722   0.16662   1.000
    C289    C    0.43263   0.28722   0.66662   1.000
    C290    C    0.43262   0.78721   0.16662   1.000
    C291    C    0.43262   0.78721   0.66662   1.000
    C292    C    0.93262   0.28722   0.16662   1.000
    C293    C    0.93261   0.28722   0.66662   1.000
    C294    C    0.93261   0.78721   0.16662   1.000
    C295    C    0.93261   0.78721   0.66662   1.000
    C296    C    0.07795   0.46871   0.42035   1.000
    C297    C    0.07795   0.46871   0.92035   1.000
    C298    C    0.07795   0.96870   0.42035   1.000
    C299    C    0.07794   0.96871   0.92035   1.000
    C300    C    0.57794   0.46871   0.42035   1.000
    C301    C    0.57794   0.46871   0.92035   1.000
    C302    C    0.57793   0.96870   0.42035   1.000
    C303    C    0.57793   0.96870   0.92035   1.000
    C304    C    0.44052   0.21777   0.01190   1.000
    C305    C    0.44052   0.21777   0.51100   1.000
    C306    C    0.44052   0.71776   0.01189   1.000
    C307    C    0.44052   0.71776   0.51189   1.000
    C308    C    0.94051   0.21777   0.01190   1.000
    C309    C    0.94051   0.21777   0.51100   1.000
    C310    C    0.94051   0.71776   0.01189   1.000
    C311    C    0.94051   0.71776   0.51189   1.000
    C312    C    0.07639   0.05960   0.48390   1.000
    C313    C    0.07638   0.05960   0.98390   1.000
    C314    C    0.07638   0.55959   0.48390   1.000
    C315    C    0.07638   0.55959   0.98390   1.000
    C316    C    0.57637   0.05960   0.48390   1.000
    C317    C    0.57637   0.05960   0.98390   1.000
    C318    C    0.57637   0.55959   0.48390   1.000
    C319    C    0.57637   0.55959   0.98390   1.000
    C320    C    0.00243   0.09613   0.49099   1.000
    C321    C    0.00243   0.09614   0.99099   1.000
    C322    C    0.00242   0.59613   0.49099   1.000
    C323    C    0.00242   0.59613   0.99099   1.000
    C324    C    0.50242   0.09614   0.49099   1.000
    C325    C    0.50241   0.09613   0.99099   1.000
    C326    C    0.50241   0.59613   0.49099   1.000
    C327    C    0.50241   0.59613   0.99099   1.000
    N328    N    0.29775   0.08113   0.04960   1.000
    N329    N    0.29774   0.08113   0.54962   1.000
    N330    N    0.29774   0.58112   0.04962   1.000
    N331    N    0.29774   0.58112   0.54962   1.000
    N332    N    0.79773   0.08113   0.04960   1.000
    N333    N    0.79773   0.08113   0.54962   1.000
    N334    N    0.79773   0.58112   0.04962   1.000
    N335    N    0.79773   0.58112   0.54962   1.000
    N336    N    0.25340   0.32615   0.48897   1.000
    N337    N    0.25339   0.32615   0.98897   1.000
    N338    N    0.25339   0.82614   0.48897   1.000
    N339    N    0.25339   0.82614   0.98897   1.000
    N340    N    0.75338   0.32615   0.48897   1.000
    N341    N    0.75338   0.32615   0.98897   1.000
    N342    N    0.75338   0.82614   0.48897   1.000
    N343    N    0.75338   0.82614   0.98897   1.000
    N344    N    0.22023   0.21019   0.22244   1.000
    N345    N    0.22023   0.21019   0.72244   1.000
    N346    N    0.22023   0.71018   0.22244   1.000
    N347    N    0.22023   0.71018   0.72244   1.000
    N348    N    0.72022   0.21019   0.22244   1.000
    N349    N    0.72022   0.21019   0.72244   1.000
    N350    N    0.72022   0.71018   0.22244   1.000
    N351    N    0.72022   0.71018   0.72244   1.000
    N352    N    0.12972   0.24778   0.31133   1.000
    N353    N    0.12971   0.24778   0.81133   1.000
    N354    N    0.12971   0.74777   0.31133   1.000
    N355    N    0.12971   0.74777   0.81133   1.000
    N356    N    0.62970   0.24778   0.31133   1.000
    N357    N    0.62970   0.24778   0.81133   1.000
    N358    N    0.62970   0.74777   0.31133   1.000
    N359    N    0.62970   0.74777   0.81133   1.000
    N360    N    0.04787   0.41886   0.45039   1.000
    N361    N    0.04786   0.41886   0.95039   1.000
    N362    N    0.04786   0.91885   0.45039   1.000
    N363    N    0.04786   0.91885   0.95039   1.000
    N364    N    0.54786   0.41886   0.45039   1.000
    N365    N    0.54785   0.41886   0.95039   1.000
    N366    N    0.54785   0.91885   0.45039   1.000
    N367    N    0.54785   0.91885   0.95039   1.000
    N368    N    0.00335   0.17381   0.01100   1.000
    N369    N    0.00335   0.17381   0.51100   1.000
    N370    N    0.00335   0.67380   0.01100   1.000
    N371    N    0.00334   0.67380   0.51100   1.000
    N372    N    0.50334   0.17381   0.01100   1.000
    N373    N    0.97033   0.28968   0.77749   1.000
    N374    N    0.97033   0.78967   0.27749   1.000
    N375    N    0.97033   0.78967   0.77749   1.000
    N376    N    0.37969   0.25231   0.18876   1.000
    N377    N    0.37969   0.25231   0.68876   1.000
    N378    N    0.37968   0.75230   0.18876   1.000
    N379    N    0.37968   0.75230   0.68876   1.000
    N380    N    0.87968   0.25231   0.18876   1.000
    N381    N    0.87968   0.25231   0.68876   1.000
    N382    N    0.87967   0.75230   0.18876   1.000
    N383    N    0.87967   0.75230   0.68876   1.000
    O384    O    0.19687   0.44494   0.02260   1.000
    O385    O    0.19687   0.44494   0.52265   1.000
    O386    O    0.19687   0.94494   0.02265   1.000
    O387    O    0.19687   0.94493   0.52264   1.000
    O388    O    0.69686   0.44495   0.02260   1.000
    O389    O    0.69686   0.44494   0.52260   1.000
    O390    O    0.69686   0.94494   0.02265   1.000
    O391    O    0.69686   0.94493   0.52264   1.000
    O392    O    0.44674   0.05468   0.47680   1.000
    O393    O    0.44673   0.05468   0.97686   1.000
    O394    O    0.44673   0.55467   0.47686   1.000
    O395    O    0.44673   0.55467   0.97685   1.000
    O396    O    0.94673   0.05468   0.47680   1.000
    O397    O    0.94672   0.05468   0.97686   1.000
    O398    O    0.94672   0.55467   0.47686   1.000
    O399    O    0.94672   0.55467   0.97685   1.000
loop_
    _geom_bond_atom_site_label_1
    _geom_bond_atom_site_label_2
    _geom_bond_distance
    _geom_bond_site_symmetry_2
    _ccdc_geom_bond_type
    H59    C119      1.10436  1_554   S
    H63    C247      1.10437  1_554   S
    H60    C245      1.09581  1_554   S
    H56    C117      1.09581  1_554   S
    H90    N334      1.03211      .   S
    H88    N332      1.03180      .   S
    H82    N330      1.03211      .   S
    H80    N328      1.03181      .   S
    C256   C248      1.52709      .   S
    C256   O384      1.25344      .   S
    C256   N337      1.34973  1_554   S
    C262   C254      1.52712      .   S
    C262   O390      1.25334      .   S
    C262   N343      1.34967  1_554   S
    C258   C250      1.52713      .   S
    C258   O386      1.25333      .   S
    C258   N339      1.34969  1_554   S
    C260   C252      1.52712      .   S
    C260   O388      1.25348      .   S
    C260   N341      1.34965  1_554   S
    N193   C306      1.44908      .   S
    N193   H135      1.03470      .   S
    N193   C327      1.34976  1_554   S
    N368   C308      1.44935  1_455   S
    N368   H129      1.03468      .   S
    N368   C321      1.34975  1_554   S
    N370   C310      1.44941  1_455   S
    N370   H131      1.03470      .   S
    N370   C323      1.34976  1_554   S
    N372   C304      1.44905      .   S
    N372   H133      1.03468      .   S
    N372   C325      1.34975  1_554   S
    C306   C274      1.55563      .   S
    C306   H163      1.09590  1_554   S
    C310   C278      1.55563      .   S
    C310   H167      1.09588  1_554   S
    C308   C276      1.55492      .   S
    C308   H165      1.09588  1_554   S
    C304   C272      1.55491      .   S
    C304   H162      1.09586  1_554   S
    C254   H78       1.09848      .   S
    C254   C241      1.52978  1_565   S
    C254   H71       1.10248  1_554   S
    C252   H76       1.09847      .   S
    C252   C243      1.52949      .   S
    C252   H69       1.10247  1_554   S
    C250   H74       1.09846      .   S
    C250   C237      1.52979  1_565   S
    C250   H67       1.10230  1_554   S
    C248   H72       1.09848      .   S
    C248   C239      1.52949      .   S
    C248   H65       1.10247  1_554   S
    H92    N328      1.02868      .   S
    H94    N330      1.02877      .   S
    H96    N332      1.02870      .   S
    H98    N334      1.02877      .   S
    H175   C319      1.10203  1_554   S
    H171   C315      1.10240  1_554   S
    H173   C317      1.10259  1_554   S
    H169   C313      1.10259  1_554   S
    N328   C237      1.48682      .   S
    N332   C241      1.48683      .   S
    N330   C239      1.48641      .   S
    N334   C243      1.48641      .   S
    C239   H50       1.09681      .   S
    C239   H42       1.09825      .   S
    C243   H54       1.09681      .   S
    C243   H46       1.09825      .   S
    C237   H48       1.09683      .   S
    C237   H40       1.09826      .   S
    C241   H52       1.09683      .   S
    C241   H44       1.09745      .   S
    H127   C278      1.09898      .   S
    H123   C274      1.09898      .   S
    H121   C272      1.09862      .   S
    H125   C276      1.09861      .   S
    C276   H112      1.10093      .   S
    C276   C292      1.49140      .   S
    C272   H108      1.10093      .   S
    C272   C288      1.49139      .   S
    C278   H114      1.10130      .   S
    C278   C294      1.49024      .   S
    C274   H110      1.10130      .   S
    C274   C290      1.49024      .   S
    C294   N382      1.39171      .   S
    C294   C286      1.37609      .   S
    C292   N380      1.39172      .   S
    C292   C284      1.37609      .   S
    C290   N378      1.39172      .   S
    C290   C282      1.37609      .   S
    C288   N376      1.39172      .   S
    C288   C280      1.37609      .   S
    N380   C268      1.35267      .   S
    N382   C270      1.35265      .   S
    N378   C266      1.35266      .   S
    N376   C264      1.35211      .   S
    H6     C211      1.08327      .   S
    H2     C207      1.08325      .   S
    H0     C205      1.08309      .   S
    H4     C209      1.08310      .   S
    C286   H139      1.08414  1_655   S
    C286   N374      1.38507      .   S
    C284   H137      1.08409  1_655   S
    C284   N199      1.38507      .   S
    C282   H143      1.08380      .   S
    C282   N197      1.38505      .   S
    C280   H141      1.08373      .   S
    C280   N195      1.38507      .   S
    N348   C209      1.34809      .   S
    N348   C225      1.38509      .   S
    N350   C211      1.34809      .   S
    N350   C227      1.38509      .   S
    N346   C207      1.34809      .   S
    N346   C223      1.38510      .   S
    N344   C205      1.34809      .   S
    N344   C221      1.38510      .   S
    C207   N354      1.35258      .   S
    C205   N352      1.35257      .   S
    C209   N356      1.35257      .   S
    C211   N358      1.35258      .   S
    C264   N195      1.34816      .   S
    C264   H100      1.08269      .   S
    C268   N199      1.34814      .   S
    C268   H104      1.08222      .   S
    C266   N197      1.34814      .   S
    C266   H102      1.08317      .   S
    C270   N374      1.34813      .   S
    C270   H106      1.08317      .   S
    H38    C227      1.08375      .   S
    H34    C223      1.08374      .   S
    H36    C225      1.08381      .   S
    H32    C221      1.08380      .   S
    C223   C231      1.37618      .   S
    C225   C233      1.37617      .   S
    C227   C235      1.37619      .   S
    C221   C229      1.37617      .   S
    N352   C229      1.39190      .   S
    N354   C231      1.39190      .   S
    N356   C233      1.39189      .   S
    N358   C235      1.39190      .   S
    C235   C219      1.49039      .   S
    C233   C217      1.49040      .   S
    C231   C215      1.49039      .   S
    C229   C213      1.49039      .   S
    H151   C302      1.09825      .   S
    H145   C296      1.09825      .   S
    H149   C300      1.09825      .   S
    H147   C298      1.09826      .   S
    H10    C215      1.10127      .   S
    H14    C219      1.10125      .   S
    H12    C217      1.10127      .   S
    H8     C213      1.10127      .   S
    H153   C296      1.09685      .   S
    H155   C298      1.09685      .   S
    H157   C300      1.09685      .   S
    H159   C302      1.09685      .   S
    C213   H16       1.09890      .   S
    C213   C116      1.55563      .   S
    C215   H18       1.09896      .   S
    C215   C118      1.55563      .   S
    C217   H20       1.09890      .   S
    C217   C120      1.55564      .   S
    C219   H22       1.09897      .   S
    C219   C246      1.55563      .   S
    C302   N366      1.48646      .   S
    C302   C316      1.52983  1_565   S
    C298   N362      1.48646      .   S
    C298   C312      1.52981  1_565   S
    C300   N364      1.48646      .   S
    C300   C318      1.52958      .   S
    C296   N360      1.48646      .   S
    C296   C314      1.52958      .   S
    N360   H201      1.02903  1_455   S
    N360   H185      1.03226      .   S
    N366   H87       1.02864      .   S
    N366   H191      1.03089      .   S
    N362   H203      1.02900  1_455   S
    N362   H187      1.03211      .   S
    N364   H85       1.02868      .   S
    N364   H189      1.03226      .   S
    H66    C251      1.10235      .   S
    H64    C249      1.10235      .   S
    H70    C255      1.10236      .   S
    H68    C253      1.10235      .   S
    H183   C318      1.09922      .   S
    H177   C312      1.09846      .   S
    H181   C316      1.09848      .   S
    H179   C314      1.09846      .   S
    H30    N342      1.03466      .   S
    H28    N340      1.03468      .   S
    H26    N338      1.03466      .   S
    H24    N336      1.03468      .   S
    O396   C320      1.25336  1_655   S
    O392   C324      1.25303      .   S
    O394   C326      1.25318      .   S
    O398   C322      1.25352  1_655   S
    C314   C322      1.52715      .   S
    C314   H172      1.10240      .   S
    C318   C326      1.52715      .   S
    C318   H176      1.10240      .   S
    C312   C320      1.52713      .   S
    C312   H170      1.10240      .   S
    C316   C324      1.52713      .   S
    C316   H174      1.10241      .   S
    C120   N340      1.44909      .   S
    C120   H61       1.09585      .   S
    C246   N342      1.44909      .   S
    C246   H62       1.09588      .   S
    C116   N336      1.44909      .   S
    C116   H57       1.09585      .   S
    C118   N338      1.44910      .   S
    C118   H58       1.09589      .   S
    N342   C263      1.34968      .   S
    N336   C257      1.34962      .   S
    N338   C259      1.34968      .   S
    N340   C261      1.34960      .   S
    C322   N371      1.34969      .   S
    C320   N369      1.34971      .   S
    C326   N194      1.34967      .   S
    C324   N192      1.34969      .   S
    H166   C309      1.09794      .   S
    H168   C311      1.09588      .   S
    H161   C305      1.09794      .   S
    H164   C307      1.09588      .   S
    H91    N335      1.03212      .   S
    H89    N333      1.03211      .   S
    H83    N331      1.03212      .   S
    H81    N329      1.03210      .   S
    C263   C255      1.52709      .   S
    C263   O391      1.25333      .   S
    C259   C251      1.52709      .   S
    C259   O387      1.25333      .   S
    C261   C253      1.52712      .   S
    C261   O389      1.25347      .   S
    C257   C249      1.52712      .   S
    C257   O385      1.25334      .   S
    N194   C307      1.44909      .   S
    N194   H136      1.03470      .   S
    N192   C305      1.45448      .   S
    N192   H134      1.03468      .   S
    N371   C311      1.44941  1_455   S
    N371   H132      1.03469      .   S
    C305   C273      1.56472      .   S
    N369   C309      1.45481  1_455   S
    N369   H130      1.03467      .   S
    C309   C277      1.56472      .   S
    C307   C275      1.55563      .   S
    C311   C279      1.55563      .   S
    C249   H73       1.09846      .   S
    C249   C240      1.52953      .   S
    C253   H77       1.09846      .   S
    C253   C244      1.52954      .   S
    C251   H75       1.09848      .   S
    C251   C238      1.52974  1_565   S
    C255   H79       1.09847      .   S
    C255   C242      1.52979  1_565   S
    H95    N331      1.02877      .   S
    H99    N335      1.02877      .   S
    H97    N333      1.02877      .   S
    H93    N329      1.02879      .   S
    N335   C244      1.48653      .   S
    N333   C242      1.48653      .   S
    N331   C240      1.48653      .   S
    N329   C238      1.48640      .   S
    C238   H49       1.09681      .   S
    C238   H41       1.09826      .   S
    C240   H51       1.09681      .   S
    C240   H43       1.09826      .   S
    C242   H53       1.09681      .   S
    C242   H45       1.09810      .   S
    C244   H55       1.09683      .   S
    C244   H47       1.09744      .   S
    H122   C273      1.09936      .   S
    H124   C275      1.09897      .   S
    H126   C277      1.09899      .   S
    H128   C279      1.09897      .   S
    C273   H109      1.10130      .   S
    C273   C289      1.49023      .   S
    C279   H115      1.10130      .   S
    C279   C295      1.49023      .   S
    C277   H113      1.10130      .   S
    C277   C293      1.49023      .   S
    C275   H111      1.10130      .   S
    C275   C291      1.49023      .   S
    C295   N383      1.39171      .   S
    C295   C287      1.37609      .   S
    C293   N381      1.39172      .   S
    C293   C285      1.37610      .   S
    C291   N379      1.39172      .   S
    C291   C283      1.37609      .   S
    C289   N377      1.39172      .   S
    C289   C281      1.37610      .   S
    N383   C271      1.35265      .   S
    N381   C269      1.35267      .   S
    N379   C267      1.35266      .   S
    N377   C265      1.35267      .   S
    H1     C206      1.08451      .   S
    H5     C210      1.08453      .   S
    H3     C208      1.08327      .   S
    H7     C212      1.08325      .   S
    C283   H144      1.08380      .   S
    C283   N198      1.38507      .   S
    C281   H142      1.08375      .   S
    C281   N196      1.38505      .   S
    C285   H138      1.08409  1_655   S
    C285   N373      1.38505      .   S
    C287   H140      1.08423  1_655   S
    C287   N375      1.38505      .   S
    N351   C212      1.34809      .   S
    N351   C228      1.38510      .   S
    N349   C210      1.34809      .   S
    N349   C226      1.38509      .   S
    N347   C208      1.34809      .   S
    N347   C224      1.38509      .   S
    N345   C206      1.34809      .   S
    N345   C222      1.38509      .   S
    C210   N357      1.35257      .   S
    C206   N353      1.35257      .   S
    C208   N355      1.35258      .   S
    C212   N359      1.35259      .   S
    C269   N373      1.34814      .   S
    C269   H105      1.08317      .   S
    C267   N198      1.34813      .   S
    C267   H103      1.08317      .   S
    C265   N196      1.34814      .   S
    C265   H101      1.08317      .   S
    C271   N375      1.34814      .   S
    C271   H107      1.08317      .   S
    H37    C226      1.08372      .   S
    H33    C222      1.08372      .   S
    H35    C224      1.08376      .   S
    H39    C228      1.08374      .   S
    C222   C230      1.37617      .   S
    C224   C232      1.37617      .   S
    C226   C234      1.37617      .   S
    C228   C236      1.37619      .   S
    N359   C236      1.39190      .   S
    N357   C234      1.39189      .   S
    N355   C232      1.39190      .   S
    N353   C230      1.39190      .   S
    C230   C214      1.49039      .   S
    C236   C220      1.48846      .   S
    C234   C218      1.49040      .   S
    C232   C216      1.48847      .   S
    H152   C303      1.09824      .   S
    H150   C301      1.09825      .   S
    H148   C299      1.09824      .   S
    H146   C297      1.09826      .   S
    H11    C216      1.10141      .   S
    H15    C220      1.10142      .   S
    H13    C218      1.10127      .   S
    H9     C214      1.10127      .   S
    H156   C299      1.09685      .   S
    H160   C303      1.09685      .   S
    H158   C301      1.09685      .   S
    H154   C297      1.09683      .   S
    C216   H19       1.09950      .   S
    C216   C119      1.55665      .   S
    C220   H23       1.09950      .   S
    C220   C247      1.55664      .   S
    C214   H17       1.09897      .   S
    C214   C117      1.55564      .   S
    C218   H21       1.09896      .   S
    C218   C245      1.55564      .   S
    C297   N361      1.48645      .   S
    C297   C315      1.52958      .   S
    C299   N363      1.48649      .   S
    C299   C313      1.52981  1_565   S
    C301   N365      1.48646      .   S
    C301   C319      1.52958      .   S
    C303   N367      1.48648      .   S
    C303   C317      1.52981  1_565   S
    N367   H200      1.02864      .   S
    N367   H84       1.03089      .   S
    N361   H202      1.02861  1_455   S
    N361   H186      1.03090      .   S
    N363   H204      1.02901  1_455   S
    N363   H188      1.03224      .   S
    N365   H86       1.02826      .   S
    N365   H190      1.03090      .   S
    H184   C319      1.09846      .   S
    H180   C315      1.09846      .   S
    H182   C317      1.09838      .   S
    H178   C313      1.09838      .   S
    H31    N343      1.03467      .   S
    H29    N341      1.03469      .   S
    H27    N339      1.03466      .   S
    H25    N337      1.03466      .   S
    O399   C323      1.25348  1_655   S
    O395   C327      1.25314      .   S
    O397   C321      1.25352  1_655   S
    O393   C325      1.25317      .   S
    C313   C321      1.52713      .   S
    C315   C323      1.52715      .   S
    C317   C325      1.52713      .   S
    C319   C327      1.52714      .   S
    C247   N343      1.44910      .   S
    C245   N341      1.44909      .   S
    C119   N339      1.44909      .   S
    C117   N337      1.44908      .   S
