# CIF file generated by openbabel 2.4.90, see http://openbabel.sf.net
data_I
_chemical_name_common ''
_cell_length_a 18.665
_cell_length_b 19.524
_cell_length_c 19.476
_cell_angle_alpha 122.217
_cell_angle_beta 89.958
_cell_angle_gamma 90.118
_space_group_name_H-M_alt 'P 1'
_space_group_name_Hall 'P 1'
loop_
    _symmetry_equiv_pos_as_xyz
    x,y,z
loop_
    _atom_site_label
    _atom_site_type_symbol
    _atom_site_fract_x
    _atom_site_fract_y
    _atom_site_fract_z
    _atom_site_occupancy
    Zn0     Zn   0.28434   0.20386   0.63740   1.000
    Zn1     Zn   0.28434   0.70385   0.13739   1.000
    Zn2     Zn   0.28434   0.70385   0.63739   1.000
    Zn3     Zn   0.78434   0.20386   0.13740   1.000
    Zn4     Zn   0.78433   0.20386   0.63740   1.000
    Zn5     Zn   0.78433   0.70385   0.13739   1.000
    Zn6     Zn   0.78433   0.70385   0.63739   1.000
    Zn7     Zn   0.03440   0.29609   0.36253   1.000
    Zn8     Zn   0.03440   0.29609   0.86253   1.000
    Zn9     Zn   0.03440   0.79608   0.36253   1.000
    Zn10    Zn   0.03440   0.79608   0.86253   1.000
    Zn11    Zn   0.53439   0.29609   0.36253   1.000
    Zn12    Zn   0.53439   0.29609   0.86253   1.000
    Zn13    Zn   0.53439   0.79608   0.36253   1.000
    Zn14    Zn   0.53439   0.79608   0.86253   1.000
    Zn15    Zn   0.28435   0.20386   0.13740   1.000
    C16     C    0.19594   0.25803   0.05160   1.000
    C17     C    0.19594   0.25802   0.55160   1.000
    C18     C    0.19594   0.75802   0.05160   1.000
    C19     C    0.19593   0.75802   0.55100   1.000
    C20     C    0.69593   0.25803   0.05160   1.000
    C21     C    0.69593   0.25802   0.55160   1.000
    C22     C    0.69593   0.75802   0.05160   1.000
    C23     C    0.69592   0.75802   0.55100   1.000
    C24     C    0.44598   0.24189   0.44842   1.000
    C25     C    0.44598   0.24189   0.94842   1.000
    C26     C    0.44598   0.74188   0.44842   1.000
    C27     C    0.44597   0.74188   0.94842   1.000
    C28     C    0.94597   0.24189   0.44842   1.000
    C29     C    0.94597   0.24189   0.94842   1.000
    C30     C    0.94597   0.74188   0.44842   1.000
    C31     C    0.94596   0.74188   0.94842   1.000
    O32     O    0.26037   0.24955   0.07013   1.000
    O33     O    0.26036   0.24955   0.57013   1.000
    O34     O    0.26036   0.74954   0.07013   1.000
    O35     O    0.26036   0.74954   0.57013   1.000
    O36     O    0.76035   0.24955   0.07013   1.000
    O37     O    0.76035   0.24955   0.57013   1.000
    O38     O    0.76035   0.74954   0.07013   1.000
    O39     O    0.76035   0.74954   0.57013   1.000
    O40     O    0.13973   0.24461   0.07750   1.000
    O41     O    0.13972   0.24461   0.57751   1.000
    O42     O    0.13972   0.74460   0.07751   1.000
    O43     O    0.13972   0.74460   0.57751   1.000
    O44     O    0.63972   0.24461   0.07750   1.000
    O45     O    0.63972   0.24461   0.57751   1.000
    O46     O    0.63971   0.74460   0.07751   1.000
    O47     O    0.63971   0.74460   0.57751   1.000
    O48     O    0.01043   0.25010   0.42956   1.000
    O49     O    0.01043   0.25009   0.92956   1.000
    O50     O    0.01043   0.75009   0.42956   1.000
    O51     O    0.01042   0.75009   0.92956   1.000
    O52     O    0.51042   0.25010   0.42956   1.000
    O53     O    0.51042   0.25009   0.92956   1.000
    O54     O    0.51041   0.75009   0.42956   1.000
    O55     O    0.51041   0.75009   0.92956   1.000
    O56     O    0.38981   0.25568   0.42291   1.000
    O57     O    0.38980   0.25568   0.92291   1.000
    O58     O    0.38980   0.75567   0.42291   1.000
    O59     O    0.38980   0.75567   0.92290   1.000
    O60     O    0.88980   0.25568   0.42291   1.000
    O61     O    0.88979   0.25568   0.92291   1.000
    O62     O    0.88979   0.75567   0.42291   1.000
    O63     O    0.88979   0.75567   0.92290   1.000
loop_
    _geom_bond_atom_site_label_1
    _geom_bond_atom_site_label_2
    _geom_bond_distance
    _geom_bond_site_symmetry_2
    _ccdc_geom_bond_type
    C16    O32       1.29175      .   S
    C16    O40       1.25019      .   S
    C18    O34       1.29175      .   S
    C18    O42       1.25029      .   S
    C20    O36       1.29175      .   S
    C20    O44       1.25018      .   S
    C22    O38       1.29175      .   S
    C22    O46       1.25028      .   S
    O38    Zn5       1.99011      .   S
    O34    Zn1       1.99013      .   S
    O36    Zn3       1.99028      .   S
    O32    Zn15      1.99028      .   S
    Zn9    O50       1.98957      .   S
    Zn13   O54       1.98959      .   S
    Zn11   O52       1.98959      .   S
    Zn7    O48       1.98958      .   S
    O58    C26       1.25029      .   S
    O62    C30       1.25029      .   S
    O60    C28       1.25029      .   S
    O56    C24       1.25029      .   S
    O48    C28       1.29210  1_455   S
    O54    C26       1.29171      .   S
    O52    C24       1.29171      .   S
    O50    C30       1.29209  1_455   S
    C19    O35       1.29588      .   S
    C19    O43       1.25633      .   S
    C23    O39       1.29586      .   S
    C23    O47       1.25635      .   S
    C21    O37       1.29174      .   S
    C21    O45       1.25029      .   S
    C17    O33       1.29174      .   S
    C17    O41       1.25031      .   S
    O35    Zn2       1.99011      .   S
    O37    Zn4       1.99030      .   S
    O33    Zn0       1.99030      .   S
    O39    Zn6       1.99011      .   S
    Zn8    O49       1.98958      .   S
    Zn10   O51       1.98958      .   S
    Zn12   O53       1.98958      .   S
    Zn14   O55       1.98959      .   S
    O63    C31       1.25039      .   S
    O59    C27       1.25039      .   S
    O61    C29       1.25029      .   S
    O57    C25       1.25028      .   S
    O49    C29       1.29210  1_455   S
    O51    C31       1.29208  1_455   S
    O53    C25       1.29171      .   S
    O55    C27       1.29170      .   S
