# CIF file generated by openbabel 2.4.90, see http://openbabel.sf.net
data_I
_chemical_name_common ''
_cell_length_a 18.665
_cell_length_b 19.524
_cell_length_c 19.476
_cell_angle_alpha 122.217
_cell_angle_beta 89.958
_cell_angle_gamma 90.118
_space_group_name_H-M_alt 'P 1'
_space_group_name_Hall 'P 1'
loop_
    _symmetry_equiv_pos_as_xyz
    x,y,z
loop_
    _atom_site_label
    _atom_site_type_symbol
    _atom_site_fract_x
    _atom_site_fract_y
    _atom_site_fract_z
    _atom_site_occupancy
    Zn0     Zn   0.28434   0.20386   0.63740   1.000
    Zn1     Zn   0.28434   0.70385   0.13739   1.000
    Zn2     Zn   0.28434   0.70385   0.63739   1.000
    Zn3     Zn   0.78434   0.20386   0.13740   1.000
    Zn4     Zn   0.78433   0.20386   0.63740   1.000
    Zn5     Zn   0.78433   0.70385   0.13739   1.000
    Zn6     Zn   0.78433   0.70385   0.63739   1.000
    Zn7     Zn   0.03440   0.29609   0.36253   1.000
    Zn8     Zn   0.03440   0.29609   0.86253   1.000
    Zn9     Zn   0.03440   0.79608   0.36253   1.000
    Zn10    Zn   0.03440   0.79608   0.86253   1.000
    Zn11    Zn   0.53439   0.29609   0.36253   1.000
    Zn12    Zn   0.53439   0.29609   0.86253   1.000
    Zn13    Zn   0.53439   0.79608   0.36253   1.000
    Zn14    Zn   0.53439   0.79608   0.86253   1.000
    Zn15    Zn   0.28435   0.20386   0.13740   1.000
    C16     C    0.19594   0.25803   0.05160   1.000
    C17     C    0.19594   0.25802   0.55160   1.000
    C18     C    0.19594   0.75802   0.05160   1.000
    C19     C    0.19593   0.75802   0.55100   1.000
    C20     C    0.69593   0.25803   0.05160   1.000
    C21     C    0.69593   0.25802   0.55160   1.000
    C22     C    0.69593   0.75802   0.05160   1.000
    C23     C    0.69592   0.75802   0.55100   1.000
    C24     C    0.44598   0.24189   0.44842   1.000
    C25     C    0.44598   0.24189   0.94842   1.000
    C26     C    0.44598   0.74188   0.44842   1.000
    C27     C    0.44597   0.74188   0.94842   1.000
    C28     C    0.94597   0.24189   0.44842   1.000
    C29     C    0.94597   0.24189   0.94842   1.000
    C30     C    0.94597   0.74188   0.44842   1.000
    C31     C    0.94596   0.74188   0.94842   1.000
    O32     O    0.26037   0.24955   0.07013   1.000
    O33     O    0.26036   0.24955   0.57013   1.000
    O34     O    0.26036   0.74954   0.07013   1.000
    O35     O    0.26036   0.74954   0.57013   1.000
    O36     O    0.76035   0.24955   0.07013   1.000
    O37     O    0.76035   0.24955   0.57013   1.000
    O38     O    0.76035   0.74954   0.07013   1.000
    O39     O    0.76035   0.74954   0.57013   1.000
    O40     O    0.13973   0.24461   0.07750   1.000
    O41     O    0.13972   0.24461   0.57751   1.000
    O42     O    0.13972   0.74460   0.07751   1.000
    O43     O    0.13972   0.74460   0.57751   1.000
    O44     O    0.63972   0.24461   0.07750   1.000
    O45     O    0.63972   0.24461   0.57751   1.000
    O46     O    0.63971   0.74460   0.07751   1.000
    O47     O    0.63971   0.74460   0.57751   1.000
    O48     O    0.01043   0.25010   0.42956   1.000
    O49     O    0.01043   0.25009   0.92956   1.000
    O50     O    0.01043   0.75009   0.42956   1.000
    O51     O    0.01042   0.75009   0.92956   1.000
    O52     O    0.51042   0.25010   0.42956   1.000
    O53     O    0.51042   0.25009   0.92956   1.000
    O54     O    0.51041   0.75009   0.42956   1.000
    O55     O    0.51041   0.75009   0.92956   1.000
    O56     O    0.38981   0.25568   0.42291   1.000
    O57     O    0.38980   0.25568   0.92291   1.000
    O58     O    0.38980   0.75567   0.42291   1.000
    O59     O    0.38980   0.75567   0.92290   1.000
    O60     O    0.88980   0.25568   0.42291   1.000
    O61     O    0.88979   0.25568   0.92291   1.000
    O62     O    0.88979   0.75567   0.42291   1.000
    O63     O    0.88979   0.75567   0.92290   1.000
    Ts64    Ts   0.28881   0.16295   0.60814   1.000
    Ts65    Ts   0.26297   0.20597   0.66575   1.000
    Ts66    Ts   0.31612   0.22001   0.65452   1.000
    Ts67    Ts   0.28881   0.66294   0.10813   1.000
    Ts68    Ts   0.26297   0.70596   0.16574   1.000
    Ts69    Ts   0.31612   0.72000   0.15451   1.000
    Ts70    Ts   0.28881   0.66294   0.60813   1.000
    Ts71    Ts   0.26297   0.70596   0.66574   1.000
    Ts72    Ts   0.31612   0.72000   0.65451   1.000
    Ts73    Ts   0.78880   0.16295   0.10813   1.000
    Ts74    Ts   0.76296   0.20597   0.16575   1.000
    Ts75    Ts   0.81612   0.22001   0.15452   1.000
    Ts76    Ts   0.78880   0.16295   0.60814   1.000
    Ts77    Ts   0.76296   0.20597   0.66575   1.000
    Ts78    Ts   0.81611   0.22001   0.65452   1.000
    Ts79    Ts   0.78880   0.66294   0.10813   1.000
    Ts80    Ts   0.76296   0.70596   0.16574   1.000
    Ts81    Ts   0.81611   0.72000   0.15451   1.000
    Ts82    Ts   0.78879   0.66294   0.60813   1.000
    Ts83    Ts   0.76296   0.70596   0.66574   1.000
    Ts84    Ts   0.81611   0.72000   0.65451   1.000
    Ts85    Ts   0.01305   0.29395   0.33418   1.000
    Ts86    Ts   0.06618   0.27999   0.34546   1.000
    Ts87    Ts   0.03889   0.33701   0.39182   1.000
    Ts88    Ts   0.06617   0.27999   0.84546   1.000
    Ts89    Ts   0.03889   0.33701   0.89182   1.000
    Ts90    Ts   0.01304   0.29395   0.83418   1.000
    Ts91    Ts   0.06617   0.77998   0.34546   1.000
    Ts92    Ts   0.03889   0.83700   0.39182   1.000
    Ts93    Ts   0.01304   0.79394   0.33418   1.000
    Ts94    Ts   0.06617   0.77998   0.84546   1.000
    Ts95    Ts   0.03888   0.83700   0.89182   1.000
    Ts96    Ts   0.01304   0.79394   0.83418   1.000
    Ts97    Ts   0.51304   0.29395   0.33418   1.000
    Ts98    Ts   0.56616   0.27999   0.34546   1.000
    Ts99    Ts   0.53888   0.33701   0.39182   1.000
    Ts100   Ts   0.51304   0.29395   0.83418   1.000
    Ts101   Ts   0.56616   0.27999   0.84546   1.000
    Ts102   Ts   0.53888   0.33701   0.89182   1.000
    Ts103   Ts   0.51304   0.79395   0.33418   1.000
    Ts104   Ts   0.56616   0.77998   0.34546   1.000
    Ts105   Ts   0.53888   0.83700   0.39182   1.000
    Ts106   Ts   0.51304   0.79394   0.83418   1.000
    Ts107   Ts   0.56616   0.77998   0.84546   1.000
    Ts108   Ts   0.53887   0.83700   0.89182   1.000
    Ts109   Ts   0.28881   0.16295   0.10813   1.000
    Ts110   Ts   0.26298   0.20597   0.16575   1.000
    Ts111   Ts   0.31613   0.22001   0.15452   1.000
    Og112   Og   0.19412   0.26604   0.03043   1.000
    Og113   Og   0.19412   0.26604   0.53043   1.000
    Og114   Og   0.19412   0.76603   0.03043   1.000
    Og115   Og   0.19412   0.76603   0.53003   1.000
    Og116   Og   0.69411   0.26604   0.03043   1.000
    Og117   Og   0.69411   0.26604   0.53043   1.000
    Og118   Og   0.69411   0.76603   0.03043   1.000
    Og119   Og   0.69411   0.76603   0.53003   1.000
    Og120   Og   0.44416   0.23385   0.46928   1.000
    Og121   Og   0.44416   0.23385   0.96958   1.000
    Og122   Og   0.44416   0.73384   0.46958   1.000
    Og123   Og   0.44416   0.73384   0.96958   1.000
    Og124   Og   0.94415   0.23385   0.46928   1.000
    Og125   Og   0.94415   0.23385   0.96958   1.000
    Og126   Og   0.94415   0.73384   0.46958   1.000
    Og127   Og   0.94414   0.73384   0.96958   1.000
loop_
    _geom_bond_atom_site_label_1
    _geom_bond_atom_site_label_2
    _geom_bond_distance
    _geom_bond_site_symmetry_2
    _ccdc_geom_bond_type
    C16    O32       1.29175      .   S
    C16    O40       1.25019      .   S
    C18    O34       1.29175      .   S
    C18    O42       1.25029      .   S
    C20    O36       1.29175      .   S
    C20    O44       1.25018      .   S
    C22    O38       1.29175      .   S
    C22    O46       1.25028      .   S
    O38    Zn5       1.99011      .   S
    O34    Zn1       1.99013      .   S
    O36    Zn3       1.99028      .   S
    O32    Zn15      1.99028      .   S
    Zn9    O50       1.98957      .   S
    Zn13   O54       1.98959      .   S
    Zn11   O52       1.98959      .   S
    Zn7    O48       1.98958      .   S
    O58    C26       1.25029      .   S
    O62    C30       1.25029      .   S
    O60    C28       1.25029      .   S
    O56    C24       1.25029      .   S
    O48    C28       1.29210  1_455   S
    O54    C26       1.29171      .   S
    O52    C24       1.29171      .   S
    O50    C30       1.29209  1_455   S
    C19    O35       1.29588      .   S
    C19    O43       1.25633      .   S
    C23    O39       1.29586      .   S
    C23    O47       1.25635      .   S
    C21    O37       1.29174      .   S
    C21    O45       1.25029      .   S
    C17    O33       1.29174      .   S
    C17    O41       1.25031      .   S
    O35    Zn2       1.99011      .   S
    O37    Zn4       1.99030      .   S
    O33    Zn0       1.99030      .   S
    O39    Zn6       1.99011      .   S
    Zn8    O49       1.98958      .   S
    Zn10   O51       1.98958      .   S
    Zn12   O53       1.98958      .   S
    Zn14   O55       1.98959      .   S
    O63    C31       1.25039      .   S
    O59    C27       1.25039      .   S
    O61    C29       1.25029      .   S
    O57    C25       1.25028      .   S
    O49    C29       1.29210  1_455   S
    O51    C31       1.29208  1_455   S
    O53    C25       1.29171      .   S
    O55    C27       1.29170      .   S
    Zn0    Ts64      0.69608      .   S
    Zn0    Ts65      0.66415      .   S
    Zn0    Ts66      0.67074      .   S
    Zn1    Ts67      0.69606      .   S
    Zn1    Ts68      0.66419      .   S
    Zn1    Ts69      0.67076      .   S
    Zn2    Ts70      0.69606      .   S
    Zn2    Ts71      0.66419      .   S
    Zn2    Ts72      0.67076      .   S
    Zn3    Ts73      0.69610      .   S
    Zn3    Ts74      0.66415      .   S
    Zn3    Ts75      0.67074      .   S
    Zn4    Ts76      0.69608      .   S
    Zn4    Ts77      0.66415      .   S
    Zn4    Ts78      0.67074      .   S
    Zn5    Ts79      0.69606      .   S
    Zn5    Ts80      0.66419      .   S
    Zn5    Ts81      0.67076      .   S
    Zn6    Ts82      0.69606      .   S
    Zn6    Ts83      0.66419      .   S
    Zn6    Ts84      0.67076      .   S
    Zn7    Ts85      0.66417      .   S
    Zn7    Ts86      0.67084      .   S
    Zn7    Ts87      0.69611      .   S
    Zn8    Ts88      0.67084      .   S
    Zn8    Ts89      0.69611      .   S
    Zn8    Ts90      0.66417      .   S
    Zn9    Ts91      0.67084      .   S
    Zn9    Ts92      0.69611      .   S
    Zn9    Ts93      0.66417      .   S
    Zn10   Ts94      0.67084      .   S
    Zn10   Ts95      0.69611      .   S
    Zn10   Ts96      0.66418      .   S
    Zn11   Ts97      0.66409      .   S
    Zn11   Ts98      0.67084      .   S
    Zn11   Ts99      0.69611      .   S
    Zn12   Ts100     0.66409      .   S
    Zn12   Ts101     0.67084      .   S
    Zn12   Ts102     0.69611      .   S
    Zn13   Ts103     0.66409      .   S
    Zn13   Ts104     0.67084      .   S
    Zn13   Ts105     0.69611      .   S
    Zn14   Ts106     0.66409      .   S
    Zn14   Ts107     0.67084      .   S
    Zn14   Ts108     0.69611      .   S
    Zn15   Ts109     0.69610      .   S
    Zn15   Ts110     0.66414      .   S
    Zn15   Ts111     0.67074      .   S
    C16    Og112     0.51432      .   S
    C17    Og113     0.51434      .   S
    C18    Og114     0.51433      .   S
    C19    Og115     0.51058      .   S
    C20    Og116     0.51432      .   S
    C21    Og117     0.51434      .   S
    C22    Og118     0.51432      .   S
    C23    Og119     0.51058      .   S
    C24    Og120     0.50872      .   S
    C25    Og121     0.51433      .   S
    C26    Og122     0.51429      .   S
    C27    Og123     0.51427      .   S
    C28    Og124     0.50872      .   S
    C29    Og125     0.51433      .   S
    C30    Og126     0.51429      .   S
    C31    Og127     0.51427      .   S
