# CIF file generated by openbabel 2.4.90, see http://openbabel.sf.net
data_I
_chemical_name_common ''
_cell_length_a 18.665
_cell_length_b 19.524
_cell_length_c 19.476
_cell_angle_alpha 122.217
_cell_angle_beta 89.958
_cell_angle_gamma 90.118
_space_group_name_H-M_alt 'P 1'
_space_group_name_Hall 'P 1'
loop_
    _symmetry_equiv_pos_as_xyz
    x,y,z
loop_
    _atom_site_label
    _atom_site_type_symbol
    _atom_site_fract_x
    _atom_site_fract_y
    _atom_site_fract_z
    _atom_site_occupancy
    C0      C    0.19594   0.25803   0.05160   1.000
    C1      C    0.19594   0.25802   0.55160   1.000
    C2      C    0.19594   0.75802   0.05160   1.000
    C3      C    0.19593   0.75802   0.55100   1.000
    C4      C    0.69593   0.25803   0.05160   1.000
    C5      C    0.69593   0.25802   0.55160   1.000
    C6      C    0.69593   0.75802   0.05160   1.000
    C7      C    0.69592   0.75802   0.55100   1.000
    C8      C    0.44598   0.24189   0.44842   1.000
    C9      C    0.44598   0.24189   0.94842   1.000
    C10     C    0.44598   0.74188   0.44842   1.000
    C11     C    0.44597   0.74188   0.94842   1.000
    C12     C    0.94597   0.24189   0.44842   1.000
    C13     C    0.94597   0.24189   0.94842   1.000
    C14     C    0.94597   0.74188   0.44842   1.000
    C15     C    0.94596   0.74188   0.94842   1.000
