# CIF file generated by openbabel 2.4.90, see http://openbabel.sf.net
data_I
_chemical_name_common ''
_cell_length_a 18.665
_cell_length_b 19.524
_cell_length_c 19.476
_cell_angle_alpha 122.217
_cell_angle_beta 89.958
_cell_angle_gamma 90.118
_space_group_name_H-M_alt 'P 1'
_space_group_name_Hall 'P 1'
loop_
    _symmetry_equiv_pos_as_xyz
    x,y,z
loop_
    _atom_site_label
    _atom_site_type_symbol
    _atom_site_fract_x
    _atom_site_fract_y
    _atom_site_fract_z
    _atom_site_occupancy
    N0      N    0.74497   0.35058   0.93846   1.000
    N1      N    0.24498   0.35058   0.43847   1.000
    N2      N    0.99503   0.14941   0.06152   1.000
    N3      N    0.24498   0.85058   0.43846   1.000
    N4      N    0.74497   0.85058   0.43847   1.000
    N5      N    0.24498   0.85058   0.93833   1.000
    N6      N    0.24498   0.35058   0.93846   1.000
    N7      N    0.74497   0.85058   0.93833   1.000
    N8      N    0.49503   0.64940   0.06151   1.000
    N9      N    0.99503   0.14941   0.56148   1.000
    N10     N    0.49503   0.14941   0.06151   1.000
    N11     N    0.99503   0.64940   0.06151   1.000
    N12     N    0.99503   0.64940   0.56152   1.000
    N13     N    0.49503   0.64940   0.56152   1.000
    N14     N    0.74497   0.35058   0.43846   1.000
    N15     N    0.49503   0.14941   0.56148   1.000
    Zr16    Zr   0.72008   0.23901   0.58416   1.000
    O17     O    0.74404   0.11777   0.55007   1.000
    O18     O    0.73435   0.25891   0.69667   1.000
    O19     O    0.81680   0.21388   0.59822   1.000
    O20     O    0.71958   0.27466   0.53166   1.000
    Zr21    Zr   0.97015   0.26094   0.91586   1.000
    O22     O    0.96964   0.22528   0.96835   1.000
    O23     O    0.06683   0.28610   0.90177   1.000
    O24     O    0.98442   0.24104   0.80330   1.000
    O25     O    0.99411   0.38219   0.94992   1.000
    Zr26    Zr   0.97014   0.76093   0.91585   1.000
    O27     O    0.96964   0.72527   0.96834   1.000
    O28     O    0.99411   0.88218   0.94992   1.000
    O29     O    0.06683   0.78609   0.90174   1.000
    O30     O    0.98442   0.74103   0.80331   1.000
    Zr31    Zr   0.47014   0.76093   0.91585   1.000
    O32     O    0.56682   0.78609   0.90174   1.000
    O33     O    0.49411   0.88218   0.94992   1.000
    O34     O    0.48442   0.74103   0.80331   1.000
    O35     O    0.46964   0.72527   0.96834   1.000
    Zr36    Zr   0.47015   0.26094   0.91586   1.000
    O37     O    0.46964   0.22528   0.96835   1.000
    O38     O    0.48442   0.24104   0.80330   1.000
    O39     O    0.56683   0.28610   0.90178   1.000
    O40     O    0.49411   0.38219   0.94992   1.000
    Zr41    Zr   0.47015   0.76093   0.41585   1.000
    O42     O    0.56683   0.78609   0.40178   1.000
    O43     O    0.49411   0.88218   0.44991   1.000
    O44     O    0.48442   0.74103   0.30331   1.000
    O45     O    0.46964   0.72527   0.46835   1.000
    Zr46    Zr   0.97015   0.76093   0.41586   1.000
    O47     O    0.06683   0.78609   0.40178   1.000
    O48     O    0.99411   0.88218   0.44991   1.000
    O49     O    0.98442   0.74103   0.30331   1.000
    O50     O    0.96964   0.72527   0.46835   1.000
    Zr51    Zr   0.97015   0.26094   0.41586   1.000
    O52     O    0.06684   0.28610   0.40178   1.000
    O53     O    0.98442   0.24104   0.30331   1.000
    O54     O    0.99412   0.38219   0.44992   1.000
    O55     O    0.96964   0.22528   0.46823   1.000
    Zr56    Zr   0.72008   0.73900   0.08416   1.000
    O57     O    0.73435   0.75890   0.19667   1.000
    O58     O    0.74404   0.61777   0.05007   1.000
    O59     O    0.81680   0.71387   0.09823   1.000
    O60     O    0.71958   0.77466   0.03162   1.000
    Zr61    Zr   0.22009   0.73900   0.58401   1.000
    O62     O    0.23436   0.75890   0.69657   1.000
    O63     O    0.24405   0.61777   0.55000   1.000
    O64     O    0.31680   0.71387   0.59815   1.000
    O65     O    0.21959   0.77465   0.53150   1.000
    Zr66    Zr   0.22009   0.73900   0.08416   1.000
    O67     O    0.21959   0.77466   0.03162   1.000
    O68     O    0.24405   0.61777   0.05007   1.000
    O69     O    0.23436   0.75890   0.19667   1.000
    O70     O    0.31681   0.71387   0.09823   1.000
    Zr71    Zr   0.72009   0.23901   0.08416   1.000
    O72     O    0.81680   0.21388   0.09823   1.000
    O73     O    0.74404   0.11777   0.05004   1.000
    O74     O    0.73436   0.25891   0.19667   1.000
    O75     O    0.71959   0.27466   0.03165   1.000
    Zr76    Zr   0.22009   0.23901   0.58416   1.000
    O77     O    0.21960   0.27466   0.53166   1.000
    O78     O    0.23436   0.25891   0.69667   1.000
    O79     O    0.24405   0.11777   0.55007   1.000
    O80     O    0.31681   0.21388   0.59822   1.000
    Zr81    Zr   0.22010   0.23901   0.08416   1.000
    O82     O    0.21960   0.27466   0.03165   1.000
    O83     O    0.24405   0.11777   0.05004   1.000
    O84     O    0.23437   0.25891   0.19668   1.000
    O85     O    0.31681   0.21388   0.09823   1.000
    Zr86    Zr   0.47015   0.26094   0.41585   1.000
    O87     O    0.46965   0.22528   0.46822   1.000
    O88     O    0.48442   0.24104   0.30331   1.000
    O89     O    0.49411   0.38219   0.44992   1.000
    O90     O    0.56683   0.28610   0.40178   1.000
    Zr91    Zr   0.72008   0.73900   0.58401   1.000
    O92     O    0.71958   0.77465   0.53151   1.000
    O93     O    0.73435   0.75890   0.69657   1.000
    O94     O    0.81679   0.71387   0.59815   1.000
    O95     O    0.74404   0.61777   0.55000   1.000
loop_
    _geom_bond_atom_site_label_1
    _geom_bond_atom_site_label_2
    _geom_bond_distance
    _geom_bond_site_symmetry_2
    _ccdc_geom_bond_type
    Zr16   O17       2.13821      .   S
    N4     O17       4.45519  1_565   S
    Zr16   O18       2.02894      .   S
    N0     O18       4.05347      .   S
    Zr16   O19       1.92931      .   S
    N9     O19       3.49519      .   S
    Zr16   O20       1.51304      .   S
    N14    O20       2.92924      .   S
    Zr21   O22       1.51290      .   S
    N2     O22       2.92944  1_554   S
    Zr21   O23       1.92680  1_655   S
    N6     O23       3.48990      .   S
    Zr21   O24       2.02950      .   S
    N9     O24       4.05421      .   S
    Zr21   O25       2.13676      .   S
    N11    O25       4.45554  1_554   S
    Zr26   O27       1.51287      .   S
    N11    O27       2.92939  1_554   S
    Zr26   O28       2.13683      .   S
    N2     O28       4.45572  1_544   S
    Zr26   O29       1.92698  1_655   S
    N5     O29       3.48992      .   S
    Zr26   O30       2.02931      .   S
    N12    O30       4.05370      .   S
    Zr31   O32       1.92688      .   S
    N7     O32       3.48982      .   S
    Zr31   O33       2.13682      .   S
    N10    O33       4.45573  1_544   S
    Zr31   O34       2.02932      .   S
    N13    O34       4.05373      .   S
    Zr31   O35       1.51286      .   S
    N8     O35       2.92937  1_554   S
    Zr36   O37       1.51288      .   S
    N10    O37       2.92938  1_554   S
    Zr36   O38       2.02953      .   S
    N15    O38       4.05429      .   S
    Zr36   O39       1.92670      .   S
    N0     O39       3.48981      .   S
    Zr36   O40       2.13676      .   S
    N8     O40       4.45555  1_554   S
    Zr41   O42       1.92669      .   S
    N4     O42       3.48981      .   S
    Zr41   O43       2.13686      .   S
    N15    O43       4.45577  1_545   S
    Zr41   O44       2.02936      .   S
    N8     O44       4.05381      .   S
    Zr41   O45       1.51287      .   S
    N13    O45       2.92942      .   S
    Zr46   O47       1.92679  1_655   S
    N3     O47       3.48991      .   S
    Zr46   O48       2.13686      .   S
    N9     O48       4.45576  1_545   S
    Zr46   O49       2.02935      .   S
    N11    O49       4.05380      .   S
    Zr46   O50       1.51288      .   S
    N12    O50       2.92945      .   S
    Zr51   O52       1.92678  1_655   S
    N1     O52       3.48987      .   S
    Zr51   O53       2.02932      .   S
    N2     O53       4.05373      .   S
    Zr51   O54       2.13675      .   S
    N12    O54       4.45551      .   S
    Zr51   O55       1.51074      .   S
    N9     O55       2.93096      .   S
    Zr56   O57       2.02896      .   S
    N4     O57       4.05358      .   S
    Zr56   O58       2.13816      .   S
    N0     O58       4.45504  1_556   S
    Zr56   O59       1.92936      .   S
    N11    O59       3.49518      .   S
    Zr56   O60       1.51361      .   S
    N7     O60       2.93098  1_556   S
    Zr61   O62       2.02976      .   S
    N5     O62       4.05313      .   S
    Zr61   O63       2.13857      .   S
    N1     O63       4.45522      .   S
    Zr61   O64       1.92972      .   S
    N13    O64       3.49505      .   S
    Zr61   O65       1.51302      .   S
    N3     O65       2.92665      .   S
    Zr66   O67       1.51361      .   S
    N5     O67       2.93096  1_556   S
    Zr66   O68       2.13816      .   S
    N6     O68       4.45504  1_556   S
    Zr66   O69       2.02896      .   S
    N3     O69       4.05357      .   S
    Zr66   O70       1.92931      .   S
    N8     O70       3.49504      .   S
    Zr71   O72       1.92935      .   S
    N2     O72       3.49515      .   S
    Zr71   O73       2.13803      .   S
    N7     O73       4.45496  1_566   S
    Zr71   O74       2.02898      .   S
    N14    O74       4.05354      .   S
    Zr71   O75       1.51301      .   S
    N0     O75       2.92923  1_556   S
    Zr76   O77       1.51302      .   S
    N1     O77       2.92919      .   S
    Zr76   O78       2.02894      .   S
    N6     O78       4.05346      .   S
    Zr76   O79       2.13821      .   S
    N3     O79       4.45519  1_565   S
    Zr76   O80       1.92926      .   S
    N15    O80       3.49505      .   S
    Zr81   O82       1.51301      .   S
    N6     O82       2.92923  1_556   S
    Zr81   O83       2.13803      .   S
    N5     O83       4.45496  1_566   S
    Zr81   O84       2.02900      .   S
    N1     O84       4.05359      .   S
    Zr81   O85       1.92930      .   S
    N10    O85       3.49502      .   S
    Zr86   O87       1.51071      .   S
    N15    O87       2.93087      .   S
    Zr86   O88       2.02935      .   S
    N10    O88       4.05379      .   S
    Zr86   O89       2.13674      .   S
    N13    O89       4.45551      .   S
    Zr86   O90       1.92668      .   S
    N14    O90       3.48977      .   S
    Zr91   O92       1.51302      .   S
    N4     O92       2.92664      .   S
    Zr91   O93       2.02975      .   S
    N7     O93       4.05310      .   S
    Zr91   O94       1.92977      .   S
    N12    O94       3.49518      .   S
    Zr91   O95       2.13856      .   S
    N14    O95       4.45522      .   S
