# CIF file generated by openbabel 2.4.90, see http://openbabel.sf.net
data_I
_chemical_name_common ''
_cell_length_a 18.665
_cell_length_b 19.524
_cell_length_c 19.476
_cell_angle_alpha 122.217
_cell_angle_beta 89.958
_cell_angle_gamma 90.118
_space_group_name_H-M_alt 'P 1'
_space_group_name_Hall 'P 1'
loop_
    _symmetry_equiv_pos_as_xyz
    x,y,z
loop_
    _atom_site_label
    _atom_site_type_symbol
    _atom_site_fract_x
    _atom_site_fract_y
    _atom_site_fract_z
    _atom_site_occupancy
    Zr0     Zr   0.28435   0.20386   0.13740   1.000
    Zr1     Zr   0.28434   0.20386   0.63740   1.000
    Zr2     Zr   0.28434   0.70385   0.13739   1.000
    Zr3     Zr   0.28434   0.70385   0.63739   1.000
    Zr4     Zr   0.78434   0.20386   0.13740   1.000
    Zr5     Zr   0.78433   0.20386   0.63740   1.000
    Zr6     Zr   0.78433   0.70385   0.13739   1.000
    Zr7     Zr   0.78433   0.70385   0.63739   1.000
    Zr8     Zr   0.03440   0.29609   0.36253   1.000
    Zr9     Zr   0.03440   0.29609   0.86253   1.000
    Zr10    Zr   0.03440   0.79608   0.36253   1.000
    Zr11    Zr   0.03440   0.79608   0.86253   1.000
    Zr12    Zr   0.53439   0.29609   0.36253   1.000
    Zr13    Zr   0.53439   0.29609   0.86253   1.000
    Zr14    Zr   0.53439   0.79608   0.36253   1.000
    Zr15    Zr   0.53439   0.79608   0.86253   1.000
    Zr16    Zr   0.19594   0.25803   0.05160   1.000
    Zr17    Zr   0.19594   0.25802   0.55160   1.000
    Zr18    Zr   0.19594   0.75802   0.05160   1.000
    Zr19    Zr   0.19593   0.75802   0.55100   1.000
    Zr20    Zr   0.69593   0.25803   0.05160   1.000
    Zr21    Zr   0.69593   0.25802   0.55160   1.000
    Zr22    Zr   0.69593   0.75802   0.05160   1.000
    Zr23    Zr   0.69592   0.75802   0.55100   1.000
    Zr24    Zr   0.44598   0.24189   0.44842   1.000
    Zr25    Zr   0.44598   0.24189   0.94842   1.000
    Zr26    Zr   0.44598   0.74188   0.44842   1.000
    Zr27    Zr   0.44597   0.74188   0.94842   1.000
    Zr28    Zr   0.94597   0.24189   0.44842   1.000
    Zr29    Zr   0.94597   0.24189   0.94842   1.000
    Zr30    Zr   0.94597   0.74188   0.44842   1.000
    Zr31    Zr   0.94596   0.74188   0.94842   1.000
    Zr32    Zr   0.26037   0.24955   0.07013   1.000
    Zr33    Zr   0.26036   0.24955   0.57013   1.000
    Zr34    Zr   0.26036   0.74954   0.07013   1.000
    Zr35    Zr   0.26036   0.74954   0.57013   1.000
    Zr36    Zr   0.76035   0.24955   0.07013   1.000
    Zr37    Zr   0.76035   0.24955   0.57013   1.000
    Zr38    Zr   0.76035   0.74954   0.07013   1.000
    Zr39    Zr   0.76035   0.74954   0.57013   1.000
    Zr40    Zr   0.13973   0.24461   0.07750   1.000
    Zr41    Zr   0.13972   0.24461   0.57751   1.000
    Zr42    Zr   0.13972   0.74460   0.07751   1.000
    Zr43    Zr   0.13972   0.74460   0.57751   1.000
    Zr44    Zr   0.63972   0.24461   0.07750   1.000
    Zr45    Zr   0.63972   0.24461   0.57751   1.000
    Zr46    Zr   0.63971   0.74460   0.07751   1.000
    Zr47    Zr   0.63971   0.74460   0.57751   1.000
    Zr48    Zr   0.01043   0.25010   0.42956   1.000
    Zr49    Zr   0.01043   0.25009   0.92956   1.000
    Zr50    Zr   0.01043   0.75009   0.42956   1.000
    Zr51    Zr   0.01042   0.75009   0.92956   1.000
    Zr52    Zr   0.51042   0.25010   0.42956   1.000
    Zr53    Zr   0.51042   0.25009   0.92956   1.000
    Zr54    Zr   0.51041   0.75009   0.42956   1.000
    Zr55    Zr   0.51041   0.75009   0.92956   1.000
    Zr56    Zr   0.38981   0.25568   0.42291   1.000
    Zr57    Zr   0.38980   0.25568   0.92291   1.000
    Zr58    Zr   0.38980   0.75567   0.42291   1.000
    Zr59    Zr   0.38980   0.75567   0.92290   1.000
    Zr60    Zr   0.88980   0.25568   0.42291   1.000
    Zr61    Zr   0.88979   0.25568   0.92291   1.000
    Zr62    Zr   0.88979   0.75567   0.42291   1.000
    Zr63    Zr   0.88979   0.75567   0.92290   1.000
    O64     O    0.22815   0.25379   0.06086   1.000
    O65     O    0.16784   0.25132   0.06455   1.000
    O66     O    0.22815   0.75378   0.06086   1.000
    O67     O    0.16783   0.75131   0.06456   1.000
    O68     O    0.72814   0.25379   0.06086   1.000
    O69     O    0.66783   0.25132   0.06455   1.000
    O70     O    0.72814   0.75378   0.06086   1.000
    O71     O    0.66782   0.75131   0.06456   1.000
    O72     O    0.77234   0.72669   0.10376   1.000
    O73     O    0.27235   0.72669   0.10376   1.000
    O74     O    0.77235   0.22670   0.10376   1.000
    O75     O    0.27236   0.22670   0.10376   1.000
    O76     O    0.02241   0.77308   0.39605   1.000
    O77     O    0.52240   0.77309   0.39605   1.000
    O78     O    0.52241   0.27309   0.39605   1.000
    O79     O    0.02242   0.27309   0.39605   1.000
    O80     O    0.41789   0.74877   0.43567   1.000
    O81     O    0.91788   0.74877   0.43567   1.000
    O82     O    0.91788   0.24878   0.43567   1.000
    O83     O    0.41789   0.24878   0.43567   1.000
    O84     O    0.97820   0.24599   0.43899   1.000
    O85     O    0.47820   0.74598   0.43899   1.000
    O86     O    0.47820   0.24599   0.43899   1.000
    O87     O    0.97820   0.74598   0.43899   1.000
    O88     O    0.22815   0.75378   0.56056   1.000
    O89     O    0.16783   0.75131   0.56426   1.000
    O90     O    0.72814   0.75378   0.56056   1.000
    O91     O    0.66782   0.75131   0.56426   1.000
    O92     O    0.72814   0.25379   0.56086   1.000
    O93     O    0.66782   0.25132   0.56456   1.000
    O94     O    0.22815   0.25379   0.56086   1.000
    O95     O    0.16783   0.25132   0.56456   1.000
    O96     O    0.27235   0.72669   0.60376   1.000
    O97     O    0.77234   0.22670   0.60376   1.000
    O98     O    0.27235   0.22670   0.60376   1.000
    O99     O    0.77234   0.72669   0.60376   1.000
    O100    O    0.02241   0.27309   0.89605   1.000
    O101    O    0.02241   0.77308   0.89605   1.000
    O102    O    0.52240   0.27309   0.89605   1.000
    O103    O    0.52240   0.77308   0.89605   1.000
    O104    O    0.91788   0.74877   0.93566   1.000
    O105    O    0.41789   0.74877   0.93566   1.000
    O106    O    0.91788   0.24878   0.93567   1.000
    O107    O    0.41789   0.24878   0.93567   1.000
    O108    O    0.97820   0.24599   0.93899   1.000
    O109    O    0.97819   0.74598   0.93899   1.000
    O110    O    0.47820   0.24599   0.93899   1.000
    O111    O    0.47819   0.74598   0.93899   1.000
    N112    N    0.74497   0.35058   0.93846   1.000
    O113    O    0.66351   0.31126   0.88770   1.000
    O114    O    0.71909   0.31032   0.97915   1.000
    O115    O    0.76800   0.49653   0.01598   1.000
    O116    O    0.74862   0.27880   0.80919   1.000
    N117    N    0.24498   0.35058   0.43847   1.000
    O118    O    0.21910   0.31032   0.47915   1.000
    O119    O    0.26801   0.49653   0.51599   1.000
    O120    O    0.16352   0.31126   0.38770   1.000
    O121    O    0.24864   0.27881   0.30919   1.000
    N122    N    0.99503   0.14941   0.06152   1.000
    O123    O    0.99870   0.22115   0.19076   1.000
    O124    O    0.96913   0.18962   0.02084   1.000
    O125    O    0.01808   0.00344   0.98399   1.000
    O126    O    0.91352   0.18875   0.11230   1.000
    N127    N    0.24498   0.85058   0.43846   1.000
    O128    O    0.26801   0.99654   0.51599   1.000
    O129    O    0.16352   0.81125   0.38770   1.000
    O130    O    0.24863   0.77880   0.30919   1.000
    O131    O    0.21909   0.81031   0.47900   1.000
    N132    N    0.74497   0.85058   0.43847   1.000
    O133    O    0.71908   0.81031   0.47900   1.000
    O134    O    0.74862   0.77880   0.30919   1.000
    O135    O    0.66351   0.81125   0.38770   1.000
    O136    O    0.76800   0.99654   0.51599   1.000
    N137    N    0.24498   0.85058   0.93833   1.000
    O138    O    0.24863   0.77880   0.80912   1.000
    O139    O    0.16352   0.81125   0.88763   1.000
    O140    O    0.21909   0.81031   0.97909   1.000
    O141    O    0.26801   0.99654   0.01592   1.000
    N142    N    0.24498   0.35058   0.93846   1.000
    O143    O    0.21910   0.31032   0.97915   1.000
    O144    O    0.26801   0.49653   0.01598   1.000
    O145    O    0.16352   0.31126   0.88769   1.000
    O146    O    0.24864   0.27880   0.80919   1.000
    N147    N    0.74497   0.85058   0.93833   1.000
    O148    O    0.76800   0.99654   0.01592   1.000
    O149    O    0.71908   0.81031   0.97909   1.000
    O150    O    0.66351   0.81125   0.88763   1.000
    O151    O    0.74862   0.77880   0.80912   1.000
    N152    N    0.49503   0.64940   0.06151   1.000
    O153    O    0.51807   0.50344   0.98399   1.000
    O154    O    0.46914   0.68961   0.02083   1.000
    O155    O    0.41352   0.68874   0.11229   1.000
    O156    O    0.49870   0.72114   0.19076   1.000
    N157    N    0.99503   0.14941   0.56148   1.000
    O158    O    0.96913   0.18962   0.52060   1.000
    O159    O    0.01808   0.00344   0.48397   1.000
    O160    O    0.99870   0.22115   0.69075   1.000
    O161    O    0.91352   0.18875   0.61228   1.000
    N162    N    0.49503   0.14941   0.06151   1.000
    O163    O    0.41352   0.18875   0.11230   1.000
    O164    O    0.49870   0.22115   0.19076   1.000
    O165    O    0.51807   0.00344   0.98399   1.000
    O166    O    0.46914   0.18962   0.02084   1.000
    N167    N    0.99503   0.64940   0.06151   1.000
    O168    O    0.96913   0.68961   0.02083   1.000
    O169    O    0.99870   0.72114   0.19076   1.000
    O170    O    0.01808   0.50344   0.98399   1.000
    O171    O    0.91351   0.68874   0.11229   1.000
    N172    N    0.99503   0.64940   0.56152   1.000
    O173    O    0.01808   0.50344   0.48399   1.000
    O174    O    0.99869   0.72114   0.69077   1.000
    O175    O    0.96913   0.68961   0.52084   1.000
    O176    O    0.91351   0.68874   0.61230   1.000
    N177    N    0.49503   0.64940   0.56152   1.000
    O178    O    0.51808   0.50344   0.48399   1.000
    O179    O    0.41352   0.68874   0.61230   1.000
    O180    O    0.49869   0.72114   0.69076   1.000
    O181    O    0.46914   0.68961   0.52084   1.000
    N182    N    0.74497   0.35058   0.43846   1.000
    O183    O    0.71909   0.31032   0.47915   1.000
    O184    O    0.74863   0.27880   0.30919   1.000
    O185    O    0.76800   0.49653   0.51598   1.000
    O186    O    0.66351   0.31126   0.38770   1.000
    N187    N    0.49503   0.14941   0.56148   1.000
    O188    O    0.41352   0.18875   0.61228   1.000
    O189    O    0.51807   0.00344   0.48397   1.000
    O190    O    0.46914   0.18962   0.52059   1.000
    O191    O    0.49870   0.22115   0.69074   1.000
loop_
    _geom_bond_atom_site_label_1
    _geom_bond_atom_site_label_2
    _geom_bond_distance
    _geom_bond_site_symmetry_2
    _ccdc_geom_bond_type
    Zr16   O64       0.64587      .   S
    Zr32   O64       0.64587      .   S
    Zr16   O65       0.62510      .   S
    Zr40   O65       0.62510      .   S
    Zr18   O66       0.64587      .   S
    Zr34   O66       0.64587      .   S
    Zr18   O67       0.62515      .   S
    Zr42   O67       0.62515      .   S
    Zr20   O68       0.64587      .   S
    Zr36   O68       0.64587      .   S
    Zr20   O69       0.62509      .   S
    Zr44   O69       0.62509      .   S
    Zr22   O70       0.64587      .   S
    Zr38   O70       0.64587      .   S
    Zr22   O71       0.62514      .   S
    Zr46   O71       0.62514      .   S
    Zr38   O72       0.99505      .   S
    Zr6    O72       0.99505      .   S
    Zr34   O73       0.99506      .   S
    Zr2    O73       0.99506      .   S
    Zr36   O74       0.99514      .   S
    Zr4    O74       0.99514      .   S
    Zr32   O75       0.99514      .   S
    Zr0    O75       0.99514      .   S
    Zr10   O76       0.99479      .   S
    Zr50   O76       0.99479      .   S
    Zr14   O77       0.99479      .   S
    Zr54   O77       0.99479      .   S
    Zr12   O78       0.99480      .   S
    Zr52   O78       0.99480      .   S
    Zr8    O79       0.99479      .   S
    Zr48   O79       0.99479      .   S
    Zr58   O80       0.62514      .   S
    Zr26   O80       0.62514      .   S
    Zr62   O81       0.62514      .   S
    Zr30   O81       0.62514      .   S
    Zr60   O82       0.62514      .   S
    Zr28   O82       0.62514      .   S
    Zr56   O83       0.62515      .   S
    Zr24   O83       0.62515      .   S
    Zr48   O84       0.64605  1_455   S
    Zr28   O84       0.64605      .   S
    Zr54   O85       0.64585      .   S
    Zr26   O85       0.64585      .   S
    Zr52   O86       0.64585      .   S
    Zr24   O86       0.64585      .   S
    Zr50   O87       0.64605  1_455   S
    Zr30   O87       0.64605      .   S
    Zr19   O88       0.64794      .   S
    Zr35   O88       0.64794      .   S
    Zr19   O89       0.62817      .   S
    Zr43   O89       0.62817      .   S
    Zr23   O90       0.64793      .   S
    Zr39   O90       0.64793      .   S
    Zr23   O91       0.62817      .   S
    Zr47   O91       0.62817      .   S
    Zr21   O92       0.64587      .   S
    Zr37   O92       0.64587      .   S
    Zr21   O93       0.62515      .   S
    Zr45   O93       0.62515      .   S
    Zr17   O94       0.64587      .   S
    Zr33   O94       0.64587      .   S
    Zr17   O95       0.62515      .   S
    Zr41   O95       0.62515      .   S
    Zr35   O96       0.99505      .   S
    Zr3    O96       0.99505      .   S
    Zr37   O97       0.99515      .   S
    Zr5    O97       0.99515      .   S
    Zr33   O98       0.99515      .   S
    Zr1    O98       0.99515      .   S
    Zr39   O99       0.99505      .   S
    Zr7    O99       0.99505      .   S
    Zr9    O100      0.99479      .   S
    Zr49   O100      0.99479      .   S
    Zr11   O101      0.99479      .   S
    Zr51   O101      0.99479      .   S
    Zr13   O102      0.99479      .   S
    Zr53   O102      0.99479      .   S
    Zr15   O103      0.99480      .   S
    Zr55   O103      0.99480      .   S
    Zr63   O104      0.62519      .   S
    Zr31   O104      0.62519      .   S
    Zr59   O105      0.62519      .   S
    Zr27   O105      0.62519      .   S
    Zr61   O106      0.62514      .   S
    Zr29   O106      0.62514      .   S
    Zr57   O107      0.62514      .   S
    Zr25   O107      0.62514      .   S
    Zr49   O108      0.64605  1_455   S
    Zr29   O108      0.64605      .   S
    Zr51   O109      0.64604  1_455   S
    Zr31   O109      0.64604      .   S
    Zr53   O110      0.64586      .   S
    Zr25   O110      0.64586      .   S
    Zr55   O111      0.64585      .   S
    Zr27   O111      0.64585      .   S
    N112   O113      1.75128      .   S
    Zr13   O113      2.44541      .   S
    N112   O114      1.46346      .   S
    Zr20   O114      2.18019  1_554   S
    N112   O115      2.44803  1_556   S
    Zr6    O115      3.44359      .   S
    N112   O116      2.13198      .   S
    Zr5    O116      2.92579      .   S
    N117   O118      1.46341      .   S
    Zr17   O118      2.18017      .   S
    N117   O119      2.44801      .   S
    Zr3    O119      3.44357      .   S
    N117   O120      1.75128      .   S
    Zr8    O120      2.44540      .   S
    N117   O121      2.13204      .   S
    Zr0    O121      2.92586      .   S
    N122   O123      2.13150      .   S
    Zr8    O123      2.92511  1_455   S
    N122   O124      1.46386      .   S
    Zr29   O124      2.18060  1_556   S
    N122   O125      2.45010  1_654   S
    Zr11   O125      3.44542  1_565   S
    N122   O126      1.75367      .   S
    Zr4    O126      2.44688      .   S
    N127   O128      2.44813      .   S
    Zr1    O128      3.44369  1_545   S
    N127   O129      1.75129      .   S
    Zr10   O129      2.44542      .   S
    N127   O130      2.13206      .   S
    Zr2    O130      2.92595      .   S
    N127   O131      1.46106      .   S
    Zr19   O131      2.17237      .   S
    N132   O133      1.46105      .   S
    Zr23   O133      2.17237      .   S
    N132   O134      2.13206      .   S
    Zr6    O134      2.92596      .   S
    N132   O135      1.75130      .   S
    Zr14   O135      2.44542      .   S
    N132   O136      2.44813      .   S
    Zr5    O136      3.44369  1_545   S
    N137   O138      2.13099      .   S
    Zr3    O138      2.92482      .   S
    N137   O139      1.75089      .   S
    Zr11   O139      2.44527      .   S
    N137   O140      1.46454      .   S
    Zr18   O140      2.18135  1_554   S
    N137   O141      2.44814  1_556   S
    Zr0    O141      3.44379  1_545   S
    N142   O143      1.46346      .   S
    Zr16   O143      2.18019  1_554   S
    N142   O144      2.44803  1_556   S
    Zr2    O144      3.44358      .   S
    N142   O145      1.75127      .   S
    Zr9    O145      2.44541      .   S
    N142   O146      2.13197      .   S
    Zr1    O146      2.92579      .   S
    N147   O148      2.44815  1_556   S
    Zr4    O148      3.44379  1_545   S
    N147   O149      1.46456      .   S
    Zr22   O149      2.18136  1_554   S
    N147   O150      1.75088      .   S
    Zr15   O150      2.44526      .   S
    N147   O151      2.13097      .   S
    Zr7    O151      2.92480      .   S
    N152   O153      2.44998  1_554   S
    Zr13   O153      3.44530      .   S
    N152   O154      1.46380      .   S
    Zr27   O154      2.18047  1_556   S
    N152   O155      1.75360      .   S
    Zr2    O155      2.44680      .   S
    N152   O156      2.13155      .   S
    Zr14   O156      2.92511      .   S
    N157   O158      1.46722      .   S
    Zr28   O158      2.17640      .   S
    N157   O159      2.45010  1_655   S
    Zr10   O159      3.44539  1_565   S
    N157   O160      2.13179      .   S
    Zr9    O160      2.92541  1_455   S
    N157   O161      1.75380      .   S
    Zr5    O161      2.44695      .   S
    N162   O163      1.75360      .   S
    Zr0    O163      2.44679      .   S
    N162   O164      2.13154      .   S
    Zr12   O164      2.92510      .   S
    N162   O165      2.45008  1_554   S
    Zr15   O165      3.44540  1_565   S
    N162   O166      1.46380      .   S
    Zr25   O166      2.18055  1_556   S
    N167   O168      1.46384      .   S
    Zr31   O168      2.18050  1_556   S
    N167   O169      2.13154      .   S
    Zr10   O169      2.92515  1_455   S
    N167   O170      2.45000  1_654   S
    Zr9    O170      3.44531      .   S
    N167   O171      1.75368      .   S
    Zr6    O171      2.44690      .   S
    N172   O173      2.45000  1_655   S
    Zr8    O173      3.44531      .   S
    N172   O174      2.13149      .   S
    Zr11   O174      2.92509  1_455   S
    N172   O175      1.46389      .   S
    Zr30   O175      2.18056      .   S
    N172   O176      1.75368      .   S
    Zr7    O176      2.44691      .   S
    N177   O178      2.44997      .   S
    Zr12   O178      3.44530      .   S
    N177   O179      1.75361      .   S
    Zr3    O179      2.44681      .   S
    N177   O180      2.13151      .   S
    Zr15   O180      2.92506      .   S
    N177   O181      1.46384      .   S
    Zr26   O181      2.18053      .   S
    N182   O183      1.46344      .   S
    Zr21   O183      2.18020      .   S
    N182   O184      2.13201      .   S
    Zr4    O184      2.92583      .   S
    N182   O185      2.44801      .   S
    Zr7    O185      3.44357      .   S
    N182   O186      1.75126      .   S
    Zr12   O186      2.44540      .   S
    N187   O188      1.75374      .   S
    Zr1    O188      2.44686      .   S
    N187   O189      2.45007      .   S
    Zr14   O189      3.44536  1_565   S
    N187   O190      1.46713      .   S
    Zr24   O190      2.17633      .   S
    N187   O191      2.13184      .   S
    Zr13   O191      2.92541      .   S
