# CIF file generated by openbabel 2.4.90, see http://openbabel.sf.net
data_I
_chemical_name_common ''
_cell_length_a 7.4575
_cell_length_b 7.4915
_cell_length_c 13.05
_cell_angle_alpha 88.595
_cell_angle_beta 89.968
_cell_angle_gamma 88.302
_space_group_name_H-M_alt 'P 1'
_space_group_name_Hall 'P 1'
loop_
    _symmetry_equiv_pos_as_xyz
    x,y,z
loop_
    _atom_site_label
    _atom_site_type_symbol
    _atom_site_fract_x
    _atom_site_fract_y
    _atom_site_fract_z
    _atom_site_occupancy
    C0      C    0.99693   0.67955   0.90372   1.000
    C1      C    0.99394   0.33129   0.90244   1.000
    C2      C    0.32540   0.00131   0.59909   1.000
    C3      C    0.67534   0.00668   0.59874   1.000
    C4      C    0.00311   0.32035   0.09632   1.000
    C5      C    0.00616   0.66859   0.09767   1.000
    C6      C    0.67467   0.99879   0.40090   1.000
    C7      C    0.32471   0.99352   0.40131   1.000
    N8      N    0.99812   0.79537   0.84202   1.000
    N9      N    0.99345   0.22207   0.83995   1.000
    N10     N    0.21231   0.00377   0.66120   1.000
    N11     N    0.78782   0.01420   0.66076   1.000
    N12     N    0.00207   0.20451   0.15800   1.000
    N13     N    0.00675   0.77778   0.16018   1.000
    N14     N    0.78774   0.99631   0.33877   1.000
    N15     N    0.21216   0.98606   0.33933   1.000
loop_
    _geom_bond_atom_site_label_1
    _geom_bond_atom_site_label_2
    _geom_bond_distance
    _geom_bond_site_symmetry_2
    _ccdc_geom_bond_type
    C4     N12       1.16933      .   S
    C5     N13       1.16935      .   S
    N14    C6        1.16951      .   S
    N15    C7        1.16944      .   S
    C3     N11       1.16943      .   S
    C2     N10       1.16951      .   S
    N9     C1        1.16933      .   S
    N8     C0        1.16934      .   S
