# CIF file generated by openbabel 2.4.90, see http://openbabel.sf.net
data_I
_chemical_name_common ''
_cell_length_a 7.4575
_cell_length_b 7.4915
_cell_length_c 13.05
_cell_angle_alpha 88.595
_cell_angle_beta 89.968
_cell_angle_gamma 88.302
_space_group_name_H-M_alt 'P 1'
_space_group_name_Hall 'P 1'
loop_
    _symmetry_equiv_pos_as_xyz
    x,y,z
loop_
    _atom_site_label
    _atom_site_type_symbol
    _atom_site_fract_x
    _atom_site_fract_y
    _atom_site_fract_z
    _atom_site_occupancy
    N0      N    0.99753   0.73746   0.87287   1.000
    N1      N    0.99369   0.27668   0.87120   1.000
    N2      N    0.26885   0.00254   0.63015   1.000
    N3      N    0.73158   0.01044   0.62975   1.000
    N4      N    0.00259   0.26243   0.12716   1.000
    N5      N    0.00645   0.72318   0.12893   1.000
    N6      N    0.73120   0.99755   0.36984   1.000
    N7      N    0.26843   0.98979   0.37032   1.000
    Zr8     Zr   0.99621   0.49999   0.00211   1.000
    O9      O    0.00001   0.57686   0.04576   1.000
    O10     O    0.99867   0.41815   0.04515   1.000
    O11     O    0.99530   0.42307   0.95692   1.000
    O12     O    0.99663   0.58180   0.95750   1.000
    Zr13    Zr   0.99953   0.01469   0.75080   1.000
    O14     O    0.09346   0.01029   0.70944   1.000
    O15     O    0.99731   0.10611   0.79204   1.000
    O16     O    0.90608   0.01356   0.70928   1.000
    O17     O    0.99885   0.91797   0.79272   1.000
    Zr18    Zr   0.00052   0.98531   0.24923   1.000
    O19     O    0.00278   0.89384   0.20802   1.000
    O20     O    0.90660   0.98974   0.29057   1.000
    O21     O    0.09396   0.98653   0.29076   1.000
    O22     O    0.00123   0.08199   0.20731   1.000
    Zr23    Zr   0.49946   0.00385   0.49996   1.000
    O24     O    0.57930   0.00164   0.45505   1.000
    O25     O    0.41986   0.99904   0.45522   1.000
    O26     O    0.57948   0.00585   0.54475   1.000
    O27     O    0.42005   0.00321   0.54490   1.000
loop_
    _geom_bond_atom_site_label_1
    _geom_bond_atom_site_label_2
    _geom_bond_distance
    _geom_bond_site_symmetry_2
    _ccdc_geom_bond_type
    Zr8    O9        0.82097  1_655   S
    N5     O9        1.56309      .   S
    Zr8    O10       0.82108      .   S
    N4     O10       1.56328  1_455   S
    Zr8    O11       0.83469  1_554   S
    N1     O11       1.58602      .   S
    Zr8    O12       0.83497  1_554   S
    N0     O12       1.58649      .   S
    Zr13   O14       0.88442  1_655   S
    N2     O14       1.66791      .   S
    Zr13   O15       0.88114      .   S
    N1     O15       1.66229      .   S
    Zr13   O16       0.88335      .   S
    N3     O16       1.66605      .   S
    Zr13   O17       0.89728  1_545   S
    N0     O17       1.68943      .   S
    Zr18   O19       0.88115      .   S
    N5     O19       1.66229      .   S
    Zr18   O20       0.88429  1_455   S
    N6     O20       1.66769      .   S
    Zr18   O21       0.88342      .   S
    N7     O21       1.66619      .   S
    Zr18   O22       0.89702  1_565   S
    N4     O22       1.68900      .   S
    Zr23   O24       0.83532      .   S
    N6     O24       1.58710  1_565   S
    Zr23   O25       0.83503  1_545   S
    N7     O25       1.58662      .   S
    Zr23   O26       0.83629      .   S
    N3     O26       1.58864      .   S
    Zr23   O27       0.83325      .   S
    N2     O27       1.58360      .   S
