# CIF file generated by openbabel 2.4.90, see http://openbabel.sf.net
data_I
_chemical_name_common ''
_cell_length_a 7.4575
_cell_length_b 7.4915
_cell_length_c 13.05
_cell_angle_alpha 88.595
_cell_angle_beta 89.968
_cell_angle_gamma 88.302
_space_group_name_H-M_alt 'P 1'
_space_group_name_Hall 'P 1'
loop_
    _symmetry_equiv_pos_as_xyz
    x,y,z
loop_
    _atom_site_label
    _atom_site_type_symbol
    _atom_site_fract_x
    _atom_site_fract_y
    _atom_site_fract_z
    _atom_site_occupancy
    Zr0     Zr   0.99953   0.01469   0.75080   1.000
    Zr1     Zr   0.00052   0.98531   0.24923   1.000
    Zr2     Zr   0.99621   0.49999   0.00211   1.000
    Zr3     Zr   0.49946   0.00385   0.49996   1.000
    N4      N    0.99753   0.73746   0.87287   1.000
    O5      O    0.99705   0.66362   0.91289   1.000
    O6      O    0.99818   0.82124   0.83464   1.000
    N7      N    0.99369   0.27668   0.87120   1.000
    O8      O    0.99438   0.34616   0.91174   1.000
    O9      O    0.99509   0.19753   0.83329   1.000
    N10     N    0.26885   0.00254   0.63015   1.000
    O11     O    0.34064   0.00256   0.58983   1.000
    O12     O    0.18739   0.00589   0.66807   1.000
    N13     N    0.73158   0.01044   0.62975   1.000
    O14     O    0.65949   0.00785   0.58955   1.000
    O15     O    0.81263   0.01244   0.66776   1.000
    N16     N    0.00259   0.26243   0.12716   1.000
    O17     O    0.00112   0.33630   0.08819   1.000
    O18     O    0.00194   0.17867   0.16539   1.000
    N19     N    0.00645   0.72318   0.12893   1.000
    O20     O    0.00382   0.65374   0.08941   1.000
    O21     O    0.00504   0.80236   0.16681   1.000
    N22     N    0.73120   0.99755   0.36984   1.000
    O23     O    0.65913   0.99943   0.41013   1.000
    O24     O    0.81267   0.99418   0.33192   1.000
    N25     N    0.26843   0.98979   0.37032   1.000
    O26     O    0.34026   0.99424   0.41048   1.000
    O27     O    0.18739   0.98774   0.33230   1.000
loop_
    _geom_bond_atom_site_label_1
    _geom_bond_atom_site_label_2
    _geom_bond_distance
    _geom_bond_site_symmetry_2
    _ccdc_geom_bond_type
    N4     O5        0.75152      .   S
    Zr2    O5        1.66993  1_554   S
    N4     O6        0.79228      .   S
    Zr0    O6        1.79456  1_545   S
    N7     O8        0.75134      .   S
    Zr2    O8        1.66938  1_554   S
    N7     O9        0.78132      .   S
    Zr0    O9        1.76228      .   S
    N10    O11       0.75037      .   S
    Zr3    O11       1.66649      .   S
    N10    O12       0.78364      .   S
    Zr0    O12       1.76884  1_655   S
    N13    O14       0.75236      .   S
    Zr3    O14       1.67258      .   S
    N13    O15       0.78287      .   S
    Zr0    O15       1.76670      .   S
    N16    O17       0.74221      .   S
    Zr2    O17       1.64217  1_655   S
    N16    O18       0.79212      .   S
    Zr1    O18       1.79405  1_565   S
    N19    O20       0.74214      .   S
    Zr2    O20       1.64194  1_655   S
    N19    O21       0.78131      .   S
    Zr1    O21       1.76230      .   S
    N22    O23       0.75179      .   S
    Zr3    O23       1.67064  1_545   S
    N22    O24       0.78355      .   S
    Zr1    O24       1.76859  1_455   S
    N25    O26       0.75159      .   S
    Zr3    O26       1.67006  1_545   S
    N25    O27       0.78293      .   S
    Zr1    O27       1.76683      .   S
