# CIF file generated by openbabel 2.4.90, see http://openbabel.sf.net
data_I
_chemical_name_common ''
_cell_length_a 14.013
_cell_length_b 15.193
_cell_length_c 15.317
_cell_angle_alpha 86.583
_cell_angle_beta 85.391
_cell_angle_gamma 88.005
_space_group_name_H-M_alt 'P 1'
_space_group_name_Hall 'P 1'
loop_
    _symmetry_equiv_pos_as_xyz
    x,y,z
loop_
    _atom_site_label
    _atom_site_type_symbol
    _atom_site_fract_x
    _atom_site_fract_y
    _atom_site_fract_z
    _atom_site_occupancy
    C0      C    0.78108   0.61038   0.01980   1.000
    C1      C    0.78597   0.43698   0.85114   1.000
    C2      C    0.79019   0.78145   0.83925   1.000
    C3      C    0.80212   0.60998   0.67491   1.000
    C4      C    0.21884   0.38961   0.98020   1.000
    C5      C    0.21389   0.56300   0.14880   1.000
    C6      C    0.20975   0.21852   0.16076   1.000
    C7      C    0.19772   0.39001   0.32510   1.000
