# CIF file generated by openbabel 2.4.90, see http://openbabel.sf.net
data_I
_chemical_name_common ''
_cell_length_a 14.013
_cell_length_b 15.193
_cell_length_c 15.317
_cell_angle_alpha 86.583
_cell_angle_beta 85.391
_cell_angle_gamma 88.005
_space_group_name_H-M_alt 'P 1'
_space_group_name_Hall 'P 1'
loop_
    _symmetry_equiv_pos_as_xyz
    x,y,z
loop_
    _atom_site_label
    _atom_site_type_symbol
    _atom_site_fract_x
    _atom_site_fract_y
    _atom_site_fract_z
    _atom_site_occupancy
    N0      N    0.22129   0.38633   0.64887   1.000
    N1      N    0.71011   0.38363   0.15204   1.000
    N2      N    0.28978   0.61636   0.84795   1.000
    N3      N    0.17188   0.89521   0.17114   1.000
    N4      N    0.82804   0.10477   0.82887   1.000
    N5      N    0.77863   0.61369   0.35111   1.000
    Zr6     Zr   0.21041   0.39055   0.15282   1.000
    O7      O    0.21555   0.38901   0.97145   1.000
    O8      O    0.19936   0.21144   0.15987   1.000
    O9      O    0.20072   0.57206   0.15740   1.000
    O10     O    0.37886   0.38678   0.15121   1.000
    O11     O    0.21044   0.38907   0.33213   1.000
    O12     O    0.04147   0.38977   0.15385   1.000
    Zr13    Zr   0.78947   0.60943   0.84718   1.000
    O14     O    0.95842   0.61021   0.84615   1.000
    O15     O    0.80055   0.78854   0.84013   1.000
    O16     O    0.62101   0.61321   0.84879   1.000
    O17     O    0.78945   0.61092   0.66787   1.000
    O18     O    0.78435   0.61099   0.02854   1.000
    O19     O    0.79917   0.42791   0.84260   1.000
loop_
    _geom_bond_atom_site_label_1
    _geom_bond_atom_site_label_2
    _geom_bond_distance
    _geom_bond_site_symmetry_2
    _ccdc_geom_bond_type
    Zr6    O7        2.77458  1_554   S
    N0     O7        4.93768      .   S
    Zr6    O8        2.72623      .   S
    N3     O8        4.82506  1_565   S
    Zr6    O9        2.76112      .   S
    N3     O9        4.92770      .   S
    Zr6    O10       2.35733      .   S
    N1     O10       4.64135      .   S
    Zr6    O11       2.74528      .   S
    N0     O11       4.86386      .   S
    Zr6    O12       2.36665      .   S
    N1     O12       4.64990  1_655   S
    Zr13   O14       2.36672      .   S
    N2     O14       4.64976  1_455   S
    Zr13   O15       2.72624      .   S
    N4     O15       4.82511  1_545   S
    Zr13   O16       2.35753      .   S
    N2     O16       4.64124      .   S
    Zr13   O17       2.74528      .   S
    N5     O17       4.86399      .   S
    Zr13   O18       2.77446  1_556   S
    N5     O18       4.93765      .   S
    Zr13   O19       2.76112      .   S
    N4     O19       4.92769      .   S
