# CIF file generated by openbabel 2.4.90, see http://openbabel.sf.net
data_I
_chemical_name_common ''
_cell_length_a 14.013
_cell_length_b 15.193
_cell_length_c 15.317
_cell_angle_alpha 86.583
_cell_angle_beta 85.391
_cell_angle_gamma 88.005
_space_group_name_H-M_alt 'P 1'
_space_group_name_Hall 'P 1'
loop_
    _symmetry_equiv_pos_as_xyz
    x,y,z
loop_
    _atom_site_label
    _atom_site_type_symbol
    _atom_site_fract_x
    _atom_site_fract_y
    _atom_site_fract_z
    _atom_site_occupancy
    Zr0     Zr   0.89180   0.60414   0.84091   1.000
    Zr1     Zr   0.68886   0.61454   0.85303   1.000
    Zr2     Zr   0.10813   0.39583   0.15909   1.000
    Zr3     Zr   0.31095   0.38544   0.14699   1.000
    Zr4     Zr   0.62441   0.10990   0.88447   1.000
    Zr5     Zr   0.37551   0.89007   0.11550   1.000
    Zr6     Zr   0.78108   0.61038   0.01980   1.000
    Zr7     Zr   0.78597   0.43698   0.85114   1.000
    Zr8     Zr   0.79019   0.78145   0.83925   1.000
    Zr9     Zr   0.80212   0.60998   0.67491   1.000
    Zr10    Zr   0.72324   0.19387   0.85904   1.000
    Zr11    Zr   0.21884   0.38961   0.98020   1.000
    Zr12    Zr   0.21389   0.56300   0.14880   1.000
    Zr13    Zr   0.20975   0.21852   0.16076   1.000
    Zr14    Zr   0.19772   0.39001   0.32510   1.000
    Zr15    Zr   0.27667   0.80610   0.14096   1.000
    Zr16    Zr   0.86209   0.61843   0.97718   1.000
    Zr17    Zr   0.72290   0.62532   0.71968   1.000
    Zr18    Zr   0.70125   0.60040   0.98729   1.000
    Zr19    Zr   0.70375   0.47567   0.85142   1.000
    Zr20    Zr   0.88261   0.59302   0.70598   1.000
    Zr21    Zr   0.86500   0.47423   0.85880   1.000
    Zr22    Zr   0.70763   0.75043   0.85924   1.000
    Zr23    Zr   0.86737   0.73699   0.82195   1.000
    Zr24    Zr   0.13784   0.38154   0.02281   1.000
    Zr25    Zr   0.27692   0.37464   0.28032   1.000
    Zr26    Zr   0.29867   0.39956   0.01272   1.000
    Zr27    Zr   0.29610   0.52430   0.14857   1.000
    Zr28    Zr   0.11724   0.40698   0.29404   1.000
    Zr29    Zr   0.13484   0.52576   0.14120   1.000
    Zr30    Zr   0.29232   0.24954   0.14076   1.000
    Zr31    Zr   0.13258   0.26298   0.17807   1.000
    O32     O    0.30481   0.39250   0.07986   1.000
    O33     O    0.25875   0.39459   0.99646   1.000
    O34     O    0.82159   0.61440   0.99849   1.000
    O35     O    0.74117   0.60539   0.00354   1.000
    O36     O    0.12298   0.38869   0.09095   1.000
    O37     O    0.17834   0.38558   0.00150   1.000
    O38     O    0.32609   0.84808   0.12823   1.000
    O39     O    0.30163   0.31749   0.14388   1.000
    O40     O    0.25104   0.23403   0.15076   1.000
    O41     O    0.17437   0.54438   0.14500   1.000
    O42     O    0.12148   0.46080   0.15014   1.000
    O43     O    0.30353   0.45487   0.14778   1.000
    O44     O    0.29394   0.38004   0.21366   1.000
    O45     O    0.25500   0.54365   0.14869   1.000
    O46     O    0.12035   0.32941   0.16858   1.000
    O47     O    0.11268   0.40141   0.22657   1.000
    O48     O    0.17117   0.24075   0.16941   1.000
    O49     O    0.23732   0.38232   0.30271   1.000
    O50     O    0.15748   0.39849   0.30957   1.000
    O51     O    0.84237   0.60150   0.69044   1.000
    O52     O    0.76251   0.61765   0.69729   1.000
    O53     O    0.88721   0.59858   0.77345   1.000
    O54     O    0.70588   0.61993   0.78635   1.000
    O55     O    0.82878   0.75922   0.83060   1.000
    O56     O    0.87959   0.67057   0.83143   1.000
    O57     O    0.74891   0.76594   0.84925   1.000
    O58     O    0.87840   0.53919   0.84985   1.000
    O59     O    0.87695   0.61128   0.90905   1.000
    O60     O    0.74486   0.45633   0.85128   1.000
    O61     O    0.82548   0.45561   0.85497   1.000
    O62     O    0.69631   0.54510   0.85222   1.000
    O63     O    0.69824   0.68248   0.85613   1.000
    O64     O    0.69506   0.60747   0.92016   1.000
    O65     O    0.67383   0.15188   0.87175   1.000
    O66     O    0.79033   0.60934   0.84697   1.000
    O67     O    0.20954   0.39064   0.15304   1.000
    N68     N    0.22129   0.38633   0.64887   1.000
    O69     O    0.22069   0.38747   0.79009   1.000
    O70     O    0.21047   0.38758   0.51144   1.000
    N71     N    0.71011   0.38363   0.15204   1.000
    O72     O    0.87252   0.38898   0.15488   1.000
    O73     O    0.54731   0.38301   0.14960   1.000
    N74     N    0.28978   0.61636   0.84795   1.000
    O75     O    0.12738   0.61100   0.84511   1.000
    O76     O    0.45255   0.61699   0.85040   1.000
    N77     N    0.17188   0.89521   0.17114   1.000
    O78     O    0.24744   0.91392   0.15072   1.000
    O79     O    0.20129   0.86001   0.16271   1.000
    O80     O    0.22666   0.82763   0.15499   1.000
    O81     O    0.18831   0.03233   0.16693   1.000
    O82     O    0.19103   0.75358   0.16198   1.000
    N83     N    0.82804   0.10477   0.82887   1.000
    O84     O    0.81163   0.96764   0.83308   1.000
    O85     O    0.75249   0.08605   0.84927   1.000
    O86     O    0.80887   0.24640   0.83801   1.000
    O87     O    0.79863   0.13997   0.83730   1.000
    O88     O    0.77325   0.17234   0.84501   1.000
    N89     N    0.77863   0.61369   0.35111   1.000
    O90     O    0.77923   0.61255   0.20989   1.000
    O91     O    0.78942   0.61242   0.48856   1.000
loop_
    _geom_bond_atom_site_label_1
    _geom_bond_atom_site_label_2
    _geom_bond_distance
    _geom_bond_site_symmetry_2
    _ccdc_geom_bond_type
    Zr26   O32       1.03767      .   S
    Zr3    O32       1.03767      .   S
    Zr26   O33       0.63889  1_554   S
    Zr11   O33       0.63889      .   S
    Zr6    O34       0.63457  1_554   S
    Zr16   O34       0.63457      .   S
    Zr6    O35       0.63890      .   S
    Zr18   O35       0.63890  1_556   S
    Zr24   O36       1.05899      .   S
    Zr2    O36       1.05899      .   S
    Zr24   O37       0.63454      .   S
    Zr11   O37       0.63454  1_556   S
    Zr5    O38       0.95849      .   S
    Zr15   O38       0.95849      .   S
    Zr30   O39       1.04948      .   S
    Zr3    O39       1.04948      .   S
    Zr30   O40       0.63607      .   S
    Zr13   O40       0.63607      .   S
    Zr29   O41       0.63891      .   S
    Zr12   O41       0.63891      .   S
    Zr29   O42       1.01025      .   S
    Zr2    O42       1.01025      .   S
    Zr3    O43       1.05705      .   S
    Zr27   O43       1.05705      .   S
    Zr3    O44       1.02883      .   S
    Zr25   O44       1.02883      .   S
    Zr27   O45       0.63741      .   S
    Zr12   O45       0.63741      .   S
    Zr2    O46       1.02147      .   S
    Zr31   O46       1.02147      .   S
    Zr2    O47       1.04920      .   S
    Zr28   O47       1.04920      .   S
    Zr13   O48       0.63648      .   S
    Zr31   O48       0.63648      .   S
    Zr25   O49       0.63942      .   S
    Zr14   O49       0.63942      .   S
    Zr28   O50       0.63562      .   S
    Zr14   O50       0.63562      .   S
    Zr9    O51       0.63566      .   S
    Zr20   O51       0.63566      .   S
    Zr9    O52       0.63945      .   S
    Zr17   O52       0.63945      .   S
    Zr20   O53       1.04911      .   S
    Zr0    O53       1.04911      .   S
    Zr17   O54       1.02899      .   S
    Zr1    O54       1.02899      .   S
    Zr23   O55       0.63647      .   S
    Zr8    O55       0.63647      .   S
    Zr23   O56       1.02146      .   S
    Zr0    O56       1.02146      .   S
    Zr8    O57       0.63607      .   S
    Zr22   O57       0.63607      .   S
    Zr0    O58       1.01025      .   S
    Zr21   O58       1.01025      .   S
    Zr0    O59       1.05890      .   S
    Zr16   O59       1.05890      .   S
    Zr7    O60       0.63738      .   S
    Zr19   O60       0.63738      .   S
    Zr7    O61       0.63897      .   S
    Zr21   O61       0.63897      .   S
    Zr19   O62       1.05715      .   S
    Zr1    O62       1.05715      .   S
    Zr1    O63       1.04954      .   S
    Zr22   O63       1.04954      .   S
    Zr1    O64       1.03772      .   S
    Zr18   O64       1.03772      .   S
    Zr10   O65       0.95847      .   S
    Zr4    O65       0.95847      .   S
    Zr0    O66       1.41725      .   S
    Zr1    O66       1.41725      .   S
    Zr2    O67       1.41642      .   S
    Zr3    O67       1.41642      .   S
    N68    O69       2.16340      .   S
    Zr11   O69       2.91209      .   S
    N68    O70       2.12161      .   S
    Zr14   O70       2.87197      .   S
    N71    O72       2.28423      .   S
    Zr2    O72       3.31266  1_455   S
    N71    O73       2.28494      .   S
    Zr3    O73       3.31443      .   S
    N74    O75       2.28402      .   S
    Zr0    O75       3.31221  1_655   S
    N74    O76       2.28465      .   S
    Zr1    O76       3.31374      .   S
    N77    O78       1.12101      .   S
    Zr5    O78       1.86161      .   S
    N77    O79       0.67587      .   S
    Zr15   O79       1.34655      .   S
    N77    O80       1.28423      .   S
    Zr15   O80       0.78260      .   S
    N77    O81       2.10058  1_565   S
    Zr13   O81       2.85029      .   S
    N77    O82       2.17063      .   S
    Zr12   O82       2.91923      .   S
    N83    O84       2.10060  1_545   S
    Zr8    O84       2.85033      .   S
    N83    O85       1.12099      .   S
    Zr4    O85       1.86161      .   S
    N83    O86       2.17063      .   S
    Zr7    O86       2.91918      .   S
    N83    O87       0.67585      .   S
    Zr10   O87       1.34653      .   S
    N83    O88       1.28421      .   S
    Zr10   O88       0.78259      .   S
    N89    O90       2.16348      .   S
    Zr6    O90       2.91183      .   S
    N89    O91       2.12172      .   S
    Zr9    O91       2.87205      .   S
