# CIF file generated by openbabel 2.4.90, see http://openbabel.sf.net
data_I
_chemical_name_common ''
_cell_length_a 10.209
_cell_length_b 10.2175
_cell_length_c 16.563
_cell_angle_alpha 83.417
_cell_angle_beta 83.414
_cell_angle_gamma 86.005
_space_group_name_H-M_alt 'P 1'
_space_group_name_Hall 'P 1'
loop_
    _symmetry_equiv_pos_as_xyz
    x,y,z
loop_
    _atom_site_label
    _atom_site_type_symbol
    _atom_site_fract_x
    _atom_site_fract_y
    _atom_site_fract_z
    _atom_site_occupancy
    Cu0     Cu   0.77199   0.45051   0.78784   1.000
    Cu1     Cu   0.25507   0.93353   0.33367   1.000
    Cu2     Cu   0.45057   0.77198   0.28785   1.000
    Cu3     Cu   0.93358   0.25502   0.83363   1.000
    I4      I    0.71027   0.20369   0.76652   1.000
    I5      I    0.99530   0.50181   0.85498   1.000
    I6      I    0.20355   0.71058   0.26638   1.000
    I7      I    0.50214   0.99488   0.35516   1.000
    Ts8     Ts   0.78145   0.47977   0.74905   1.000
    Ts9     Ts   0.72140   0.47193   0.81381   1.000
    Ts10    Ts   0.22570   0.92405   0.37244   1.000
    Ts11    Ts   0.23379   0.98414   0.30770   1.000
    Ts12    Ts   0.47189   0.72135   0.31381   1.000
    Ts13    Ts   0.47994   0.78146   0.24909   1.000
    Ts14    Ts   0.98419   0.23356   0.80768   1.000
    Ts15    Ts   0.92415   0.22574   0.87242   1.000
loop_
    _geom_bond_atom_site_label_1
    _geom_bond_atom_site_label_2
    _geom_bond_distance
    _geom_bond_site_symmetry_2
    _ccdc_geom_bond_type
    I6     Cu2       2.71248      .   S
    Cu2    Cu1       2.60089      .   S
    Cu1    I7        2.71278      .   S
    I4     Cu0       2.71261      .   S
    Cu0    Cu3       2.60130      .   S
    Cu3    I5        2.71246      .   S
    Cu0    Ts8       0.67617      .   S
    Cu0    Ts9       0.67419      .   S
    Cu1    Ts10      0.67614      .   S
    Cu1    Ts11      0.67414      .   S
    Cu2    Ts12      0.67426      .   S
    Cu2    Ts13      0.67618      .   S
    Cu3    Ts14      0.67427      .   S
    Cu3    Ts15      0.67617      .   S
