# CIF file generated by openbabel 2.4.90, see http://openbabel.sf.net
data_I
_chemical_name_common ''
_cell_length_a 10.209
_cell_length_b 10.2175
_cell_length_c 16.563
_cell_angle_alpha 83.417
_cell_angle_beta 83.414
_cell_angle_gamma 86.005
_space_group_name_H-M_alt 'P 1'
_space_group_name_Hall 'P 1'
loop_
    _symmetry_equiv_pos_as_xyz
    x,y,z
loop_
    _atom_site_label
    _atom_site_type_symbol
    _atom_site_fract_x
    _atom_site_fract_y
    _atom_site_fract_z
    _atom_site_occupancy
    N0      N    0.78650   0.91937   0.06057   1.000
    N1      N    0.91921   0.78605   0.56075   1.000
    Zr2     Zr   0.35283   0.85274   0.31077   1.000
    O3      O    0.20897   0.85271   0.39353   1.000
    O4      O    0.17883   0.90858   0.24420   1.000
    O5      O    0.52686   0.79689   0.37727   1.000
    O6      O    0.49670   0.85276   0.22795   1.000
    Zr7     Zr   0.85279   0.35276   0.81074   1.000
    O8      O    0.90857   0.17860   0.74424   1.000
    O9      O    0.85288   0.20899   0.89347   1.000
    O10     O    0.85274   0.49649   0.72798   1.000
    O11     O    0.79705   0.52688   0.87721   1.000
loop_
    _geom_bond_atom_site_label_1
    _geom_bond_atom_site_label_2
    _geom_bond_distance
    _geom_bond_site_symmetry_2
    _ccdc_geom_bond_type
    Zr2    O3        1.89052      .   S
    N1     O3        3.85425  1_655   S
    Zr2    O4        2.20458      .   S
    N0     O4        5.28779  1_655   S
    Zr2    O5        2.20428      .   S
    N1     O5        5.28641      .   S
    Zr2    O6        1.89116      .   S
    N0     O6        3.85599      .   S
    Zr7    O8        2.20651      .   S
    N1     O8        5.29083  1_565   S
    Zr7    O9        1.89040      .   S
    N0     O9        3.85333  1_564   S
    Zr7    O10       1.89065      .   S
    N1     O10       3.85416      .   S
    Zr7    O11       2.20578      .   S
    N0     O11       5.28905  1_554   S
