# CIF file generated by openbabel 2.4.90, see http://openbabel.sf.net
data_I
_chemical_name_common ''
_cell_length_a 15.375
_cell_length_b 15.377
_cell_length_c 17.986
_cell_angle_alpha 95.482
_cell_angle_beta 96.329
_cell_angle_gamma 94.366
_space_group_name_H-M_alt 'P 1'
_space_group_name_Hall 'P 1'
loop_
    _symmetry_equiv_pos_as_xyz
    x,y,z
loop_
    _atom_site_label
    _atom_site_type_symbol
    _atom_site_fract_x
    _atom_site_fract_y
    _atom_site_fract_z
    _atom_site_occupancy
    Lv0     Lv   0.26534   0.66057   0.67154   1.000
    Lv1     Lv   0.78714   0.66174   0.17517   1.000
    Lv2     Lv   0.49954   0.99148   0.99764   1.000
    Lv3     Lv   0.99865   0.49949   0.00333   1.000
    Lv4     Lv   0.76953   0.16891   0.67160   1.000
    Lv5     Lv   0.99852   0.00128   0.50194   1.000
    Lv6     Lv   0.23190   0.82621   0.32918   1.000
    Lv7     Lv   0.21255   0.33492   0.82540   1.000
    Lv8     Lv   0.74009   0.33615   0.32937   1.000
    Lv9     Lv   0.01117   0.82966   0.60000   1.000
