# CIF file generated by openbabel 2.4.90, see http://openbabel.sf.net
data_I
_chemical_name_common ''
_cell_length_a 15.375
_cell_length_b 15.377
_cell_length_c 17.986
_cell_angle_alpha 95.482
_cell_angle_beta 96.329
_cell_angle_gamma 94.366
_space_group_name_H-M_alt 'P 1'
_space_group_name_Hall 'P 1'
loop_
    _symmetry_equiv_pos_as_xyz
    x,y,z
loop_
    _atom_site_label
    _atom_site_type_symbol
    _atom_site_fract_x
    _atom_site_fract_y
    _atom_site_fract_z
    _atom_site_occupancy
    C0      C    0.98810   0.16918   0.00000   1.000
    C1      C    0.17283   0.01668   0.00887   1.000
    C2      C    0.82679   0.98305   0.99049   1.000
    C3      C    0.59391   0.65802   0.66490   1.000
    C4      C    0.93802   0.67404   0.67900   1.000
    C5      C    0.76544   0.49722   0.66646   1.000
    C6      C    0.76822   0.84047   0.67905   1.000
    C7      C    0.41151   0.33598   0.33794   1.000
    C8      C    0.06721   0.32396   0.31929   1.000
    C9      C    0.24144   0.49800   0.33260   1.000
    C10     C    0.23299   0.15513   0.32490   1.000
