# CIF file generated by openbabel 2.4.90, see http://openbabel.sf.net
data_I
_chemical_name_common ''
_cell_length_a 15.375
_cell_length_b 15.377
_cell_length_c 17.986
_cell_angle_alpha 95.482
_cell_angle_beta 96.329
_cell_angle_gamma 94.366
_space_group_name_H-M_alt 'P 1'
_space_group_name_Hall 'P 1'
loop_
    _symmetry_equiv_pos_as_xyz
    x,y,z
loop_
    _atom_site_label
    _atom_site_type_symbol
    _atom_site_fract_x
    _atom_site_fract_y
    _atom_site_fract_z
    _atom_site_occupancy
    Zr0     Zr   0.01084   0.01061   0.08136   1.000
    Zr1     Zr   0.98922   0.98871   0.92210   1.000
    Zr2     Zr   0.77746   0.67849   0.75320   1.000
    Zr3     Zr   0.75307   0.65904   0.59326   1.000
    Zr4     Zr   0.22911   0.31531   0.24715   1.000
    Zr5     Zr   0.25180   0.33730   0.40903   1.000
    Zr6     Zr   0.98810   0.16918   0.00000   1.000
    Zr7     Zr   0.17283   0.01668   0.00887   1.000
    Zr8     Zr   0.82679   0.98305   0.99049   1.000
    Zr9     Zr   0.59391   0.65802   0.66490   1.000
    Zr10    Zr   0.93802   0.67404   0.67900   1.000
    Zr11    Zr   0.76544   0.49722   0.66646   1.000
    Zr12    Zr   0.76822   0.84047   0.67905   1.000
    Zr13    Zr   0.41151   0.33598   0.33794   1.000
    Zr14    Zr   0.06721   0.32396   0.31929   1.000
    Zr15    Zr   0.24144   0.49800   0.33260   1.000
    Zr16    Zr   0.23299   0.15513   0.32490   1.000
    Zr17    Zr   0.01132   0.14121   0.06864   1.000
    Zr18    Zr   0.96981   0.12215   0.94275   1.000
    Zr19    Zr   0.14505   0.01481   0.07311   1.000
    Zr20    Zr   0.12495   0.02182   0.94710   1.000
    Zr21    Zr   0.00000   0.85957   0.93629   1.000
    Zr22    Zr   0.01056   0.87480   0.06318   1.000
    Zr23    Zr   0.85519   0.96294   0.92739   1.000
    Zr24    Zr   0.87431   0.00000   0.05344   1.000
    Zr25    Zr   0.64167   0.66247   0.72790   1.000
    Zr26    Zr   0.62118   0.65565   0.60038   1.000
    Zr27    Zr   0.91175   0.68906   0.74399   1.000
    Zr28    Zr   0.88970   0.66346   0.61653   1.000
    Zr29    Zr   0.78487   0.54377   0.72953   1.000
    Zr30    Zr   0.74460   0.52554   0.60325   1.000
    Zr31    Zr   0.77410   0.81124   0.74333   1.000
    Zr32    Zr   0.76364   0.79432   0.61578   1.000
    Zr33    Zr   0.36371   0.32920   0.27476   1.000
    Zr34    Zr   0.38433   0.34052   0.40254   1.000
    Zr35    Zr   0.09353   0.31085   0.25453   1.000
    Zr36    Zr   0.11545   0.33197   0.38215   1.000
    Zr37    Zr   0.22556   0.45130   0.26946   1.000
    Zr38    Zr   0.25941   0.47017   0.39659   1.000
    Zr39    Zr   0.22588   0.18411   0.26057   1.000
    Zr40    Zr   0.24092   0.20145   0.38832   1.000
    O41     O    0.99971   0.15520   0.03432   1.000
    O42     O    0.97896   0.14567   0.97138   1.000
    O43     O    0.15894   0.01575   0.04099   1.000
    O44     O    0.14889   0.01925   0.97799   1.000
    O45     O    0.94258   0.00530   0.06740   1.000
    O46     O    0.85055   0.99152   0.02197   1.000
    O47     O    0.01070   0.94270   0.07227   1.000
    O48     O    0.01108   0.07591   0.07500   1.000
    O49     O    0.07795   0.01271   0.07724   1.000
    O50     O    0.00003   0.99966   0.00173   1.000
    O51     O    0.16132   0.31308   0.25084   1.000
    O52     O    0.22750   0.24971   0.25386   1.000
    O53     O    0.22734   0.38331   0.25831   1.000
    O54     O    0.29641   0.32226   0.26096   1.000
    O55     O    0.08037   0.31741   0.28691   1.000
    O56     O    0.22944   0.16962   0.29274   1.000
    O57     O    0.23350   0.47465   0.30103   1.000
    O58     O    0.38761   0.33259   0.30635   1.000
    O59     O    0.09133   0.32797   0.35072   1.000
    O60     O    0.23696   0.17829   0.35661   1.000
    O61     O    0.25043   0.48408   0.36460   1.000
    O62     O    0.39792   0.33825   0.37024   1.000
    O63     O    0.18363   0.33464   0.39559   1.000
    O64     O    0.24636   0.26938   0.39868   1.000
    O65     O    0.25561   0.40373   0.40281   1.000
    O66     O    0.31807   0.33891   0.40579   1.000
    O67     O    0.68713   0.65735   0.59682   1.000
    O68     O    0.74883   0.59229   0.59826   1.000
    O69     O    0.75835   0.72668   0.60452   1.000
    O70     O    0.82138   0.66125   0.60490   1.000
    O71     O    0.60755   0.65684   0.63264   1.000
    O72     O    0.75502   0.51138   0.63486   1.000
    O73     O    0.76593   0.81739   0.64742   1.000
    O74     O    0.91386   0.66875   0.64777   1.000
    O75     O    0.61779   0.66024   0.69640   1.000
    O76     O    0.77515   0.52049   0.69800   1.000
    O77     O    0.92489   0.68155   0.71150   1.000
    O78     O    0.77116   0.82585   0.71119   1.000
    O79     O    0.70956   0.67048   0.74055   1.000
    O80     O    0.78116   0.61113   0.74137   1.000
    O81     O    0.77578   0.74486   0.74827   1.000
    O82     O    0.84460   0.68378   0.74860   1.000
    O83     O    0.92220   0.97583   0.92475   1.000
    O84     O    0.99461   0.92414   0.92920   1.000
    O85     O    0.97952   0.05543   0.93243   1.000
    O86     O    0.05708   0.00527   0.93460   1.000
    O87     O    0.84099   0.97299   0.95894   1.000
    O88     O    0.76526   0.66877   0.67323   1.000
    O89     O    0.24046   0.32631   0.32809   1.000
    N90     N    0.26534   0.66057   0.67154   1.000
    O91     O    0.40527   0.65885   0.66869   1.000
    O92     O    0.12585   0.66612   0.67477   1.000
    N93     N    0.78714   0.66174   0.17517   1.000
    O94     O    0.77246   0.65993   0.35566   1.000
    O95     O    0.78285   0.66967   0.99299   1.000
    N96     N    0.49954   0.99148   0.99764   1.000
    O97     O    0.36038   0.00326   0.00244   1.000
    O98     O    0.63889   0.98821   0.99424   1.000
    N99     N    0.99865   0.49949   0.00333   1.000
    O100    O    0.99263   0.35863   0.00167   1.000
    N101    N    0.76953   0.16891   0.67160   1.000
    O102    O    0.76807   0.30878   0.66922   1.000
    O103    O    0.76884   0.02899   0.67484   1.000
    N104    N    0.99852   0.00128   0.50194   1.000
    O105    O    0.99534   0.99446   0.68365   1.000
    O106    O    0.00285   0.00690   0.32010   1.000
    N107    N    0.23190   0.82621   0.32918   1.000
    O108    O    0.23193   0.96632   0.32741   1.000
    O109    O    0.23579   0.68636   0.33063   1.000
    N110    N    0.21255   0.33492   0.82540   1.000
    O111    O    0.22893   0.33689   0.64569   1.000
    O112    O    0.22062   0.32533   0.00733   1.000
    N113    N    0.74009   0.33615   0.32937   1.000
    O114    O    0.60015   0.33661   0.33310   1.000
    O115    O    0.87951   0.33135   0.32506   1.000
    N116    N    0.01117   0.82966   0.60000   1.000
loop_
    _geom_bond_atom_site_label_1
    _geom_bond_atom_site_label_2
    _geom_bond_distance
    _geom_bond_site_symmetry_2
    _ccdc_geom_bond_type
    Zr6    O41       0.68271      .   S
    Zr17   O41       0.68271  1_455   S
    Zr6    O42       0.59693  1_554   S
    Zr18   O42       0.59693      .   S
    Zr7    O43       0.63865      .   S
    Zr19   O43       0.63865      .   S
    Zr7    O44       0.63793  1_554   S
    Zr20   O44       0.63793      .   S
    Zr24   O45       1.04702      .   S
    Zr0    O45       1.04702  1_455   S
    Zr24   O46       0.63562  1_545   S
    Zr8    O46       0.63562  1_556   S
    Zr22   O47       1.04110      .   S
    Zr0    O47       1.04110  1_545   S
    Zr17   O48       1.02119      .   S
    Zr0    O48       1.02119      .   S
    Zr19   O49       1.04080      .   S
    Zr0    O49       1.04080      .   S
    Zr0    O50       1.41578  1_545   S
    Zr1    O50       1.41578  1_656   S
    Zr4    O51       1.04984      .   S
    Zr35   O51       1.04984      .   S
    Zr4    O52       1.02613      .   S
    Zr39   O52       1.02613      .   S
    Zr4    O53       1.04860      .   S
    Zr37   O53       1.04860      .   S
    Zr4    O54       1.03206      .   S
    Zr33   O54       1.03206      .   S
    Zr35   O55       0.63887      .   S
    Zr14   O55       0.63887      .   S
    Zr39   O56       0.63782      .   S
    Zr16   O56       0.63782      .   S
    Zr37   O57       0.63666      .   S
    Zr15   O57       0.63666      .   S
    Zr33   O58       0.63716      .   S
    Zr13   O58       0.63716      .   S
    Zr14   O59       0.63605      .   S
    Zr36   O59       0.63605      .   S
    Zr16   O60       0.63723      .   S
    Zr40   O60       0.63723      .   S
    Zr15   O61       0.63760      .   S
    Zr38   O61       0.63760      .   S
    Zr13   O62       0.63747      .   S
    Zr34   O62       0.63747      .   S
    Zr36   O63       1.04619      .   S
    Zr5    O63       1.04619      .   S
    Zr40   O64       1.03862      .   S
    Zr5    O64       1.03862      .   S
    Zr38   O65       1.03615      .   S
    Zr5    O65       1.03615      .   S
    Zr34   O66       1.02548      .   S
    Zr5    O66       1.02548      .   S
    Zr3    O67       1.02143      .   S
    Zr26   O67       1.02143      .   S
    Zr3    O68       1.03663      .   S
    Zr30   O68       1.03663      .   S
    Zr3    O69       1.03570      .   S
    Zr32   O69       1.03570      .   S
    Zr3    O70       1.04542      .   S
    Zr28   O70       1.04542      .   S
    Zr26   O71       0.63744      .   S
    Zr9    O71       0.63744      .   S
    Zr30   O72       0.63647      .   S
    Zr11   O72       0.63647      .   S
    Zr32   O73       0.63715      .   S
    Zr12   O73       0.63715      .   S
    Zr28   O74       0.63316      .   S
    Zr10   O74       0.63316      .   S
    Zr9    O75       0.63678      .   S
    Zr25   O75       0.63678      .   S
    Zr11   O76       0.63756      .   S
    Zr29   O76       0.63756      .   S
    Zr10   O77       0.64218      .   S
    Zr27   O77       0.64218      .   S
    Zr12   O78       0.63822      .   S
    Zr31   O78       0.63822      .   S
    Zr25   O79       1.03885      .   S
    Zr2    O79       1.03885      .   S
    Zr29   O80       1.04455      .   S
    Zr2    O80       1.04455      .   S
    Zr31   O81       1.03488      .   S
    Zr2    O81       1.03488      .   S
    Zr27   O82       1.04243      .   S
    Zr2    O82       1.04243      .   S
    Zr1    O83       1.04152      .   S
    Zr23   O83       1.04152      .   S
    Zr1    O84       1.02153      .   S
    Zr21   O84       1.02153  1_455   S
    Zr1    O85       1.04990  1_565   S
    Zr18   O85       1.04990      .   S
    Zr1    O86       1.04924  1_665   S
    Zr20   O86       1.04924      .   S
    Zr23   O87       0.63974      .   S
    Zr8    O87       0.63974      .   S
    Zr2    O88       1.42180      .   S
    Zr3    O88       1.42180      .   S
    Zr4    O89       1.43904      .   S
    Zr5    O89       1.43904      .   S
    N90    O91       2.15982      .   S
    Zr9    O91       2.90962      .   S
    N90    O92       2.15973      .   S
    Zr10   O92       2.90874  1_655   S
    N93    O94       3.28131      .   S
    Zr3    O94       4.31783      .   S
    N93    O95       3.28431  1_554   S
    Zr2    O95       4.31975      .   S
    N96    O97       2.17147  1_566   S
    Zr7    O97       2.92070      .   S
    N96    O98       2.15429      .   S
    Zr8    O98       2.90405      .   S
    N99    O100      2.15822      .   S
    Zr6    O100      2.90582      .   S
    N101   O102      2.15709      .   S
    Zr11   O102      2.90605      .   S
    N101   O103      2.15717      .   S
    Zr12   O103      2.90643  1_565   S
    N104   O105      3.28562  1_545   S
    Zr1    O105      4.30930      .   S
    N104   O106      3.28782  1_655   S
    Zr0    O106      4.31484      .   S
    N107   O108      2.15772      .   S
    Zr16   O108      2.90676  1_545   S
    N107   O109      2.15853      .   S
    Zr15   O109      2.90776      .   S
    N110   O111      3.27258      .   S
    Zr5    O111      4.31001      .   S
    N110   O112      3.27867  1_556   S
    Zr4    O112      4.31878      .   S
    N113   O114      2.16052      .   S
    Zr13   O114      2.91058      .   S
    N113   O115      2.16008      .   S
    Zr14   O115      2.90951  1_455   S
