# CIF file generated by openbabel 2.4.90, see http://openbabel.sf.net
data_I
_chemical_name_common ''
_cell_length_a 19.006
_cell_length_b 18.833
_cell_length_c 18.822
_cell_angle_alpha 89.995
_cell_angle_beta 90.001
_cell_angle_gamma 89.998
_space_group_name_H-M_alt 'P 1'
_space_group_name_Hall 'P 1'
loop_
    _symmetry_equiv_pos_as_xyz
    x,y,z
loop_
    _atom_site_label
    _atom_site_type_symbol
    _atom_site_fract_x
    _atom_site_fract_y
    _atom_site_fract_z
    _atom_site_occupancy
    P0      P    0.33290   0.93310   0.44489   1.000
    P1      P    0.83291   0.93310   0.44400   1.000
    P2      P    0.42137   0.95143   0.66497   1.000
    P3      P    0.92137   0.95143   0.66497   1.000
    P4      P    0.45429   0.16479   0.56664   1.000
    P5      P    0.95430   0.16479   0.56664   1.000
    P6      P    0.33292   0.56696   0.05509   1.000
    P7      P    0.83293   0.56696   0.05509   1.000
    P8      P    0.42135   0.54855   0.83501   1.000
    P9      P    0.92136   0.54855   0.83501   1.000
    P10     P    0.45428   0.33519   0.93340   1.000
    P11     P    0.95429   0.33519   0.93340   1.000
    P12     P    0.33302   0.05514   0.93292   1.000
    P13     P    0.83303   0.05514   0.93292   1.000
    P14     P    0.42132   0.83496   0.95185   1.000
    P15     P    0.92133   0.83496   0.95185   1.000
    P16     P    0.45433   0.93422   0.16463   1.000
    P17     P    0.95433   0.93422   0.16463   1.000
    P18     P    0.33302   0.44487   0.56701   1.000
    P19     P    0.83303   0.44487   0.56701   1.000
    P20     P    0.42133   0.66506   0.54812   1.000
    P21     P    0.92133   0.66506   0.54812   1.000
    P22     P    0.45433   0.56581   0.33533   1.000
    P23     P    0.95434   0.56581   0.33533   1.000
    P24     P    0.16711   0.06691   0.55509   1.000
    P25     P    0.66712   0.06691   0.55509   1.000
    P26     P    0.07865   0.04858   0.33502   1.000
    P27     P    0.57865   0.04858   0.33502   1.000
    P28     P    0.04572   0.83522   0.43334   1.000
    P29     P    0.54573   0.83522   0.43334   1.000
    P30     P    0.16709   0.43305   0.94490   1.000
    P31     P    0.66710   0.43305   0.94490   1.000
    P32     P    0.07866   0.45146   0.16497   1.000
    P33     P    0.57867   0.45146   0.16497   1.000
    P34     P    0.04573   0.66482   0.06659   1.000
    P35     P    0.54574   0.66482   0.06659   1.000
    P36     P    0.16699   0.94487   0.06707   1.000
    P37     P    0.66700   0.94487   0.06707   1.000
    P38     P    0.07869   0.16505   0.04814   1.000
    P39     P    0.57870   0.16505   0.04814   1.000
    P40     P    0.04569   0.06578   0.83530   1.000
    P41     P    0.54569   0.06578   0.83530   1.000
    P42     P    0.16699   0.55514   0.43290   1.000
    P43     P    0.66700   0.55514   0.43290   1.000
    P44     P    0.07868   0.33495   0.45186   1.000
    P45     P    0.57869   0.33495   0.45186   1.000
    P46     P    0.04568   0.43419   0.66465   1.000
    P47     P    0.54569   0.43419   0.66465   1.000
