# CIF file generated by openbabel 2.4.90, see http://openbabel.sf.net
data_I
_chemical_name_common ''
_cell_length_a 19.006
_cell_length_b 18.833
_cell_length_c 18.822
_cell_angle_alpha 89.995
_cell_angle_beta 90.001
_cell_angle_gamma 89.998
_space_group_name_H-M_alt 'P 1'
_space_group_name_Hall 'P 1'
loop_
    _symmetry_equiv_pos_as_xyz
    x,y,z
loop_
    _atom_site_label
    _atom_site_type_symbol
    _atom_site_fract_x
    _atom_site_fract_y
    _atom_site_fract_z
    _atom_site_occupancy
    O0      O    0.37641   0.93850   0.37600   1.000
    O1      O    0.87642   0.93850   0.37650   1.000
    O2      O    0.25542   0.92558   0.42334   1.000
    O3      O    0.75542   0.92558   0.42334   1.000
    O4      O    0.65490   0.99855   0.51174   1.000
    O5      O    0.00630   0.01397   0.34958   1.000
    O6      O    0.50631   0.01397   0.34958   1.000
    O7      O    0.13876   0.99983   0.36096   1.000
    O8      O    0.35432   0.86711   0.48863   1.000
    O9      O    0.85433   0.86711   0.48863   1.000
    O10     O    0.34511   0.00146   0.48824   1.000
    O11     O    0.84512   0.00146   0.48824   1.000
    O12     O    0.49371   0.98604   0.65040   1.000
    O13     O    0.99372   0.98604   0.65040   1.000
    O14     O    0.36125   0.00000   0.63902   1.000
    O15     O    0.86126   0.00000   0.63902   1.000
    O16     O    0.41948   0.87950   0.62638   1.000
    O17     O    0.91949   0.87950   0.62638   1.000
    O18     O    0.41059   0.93824   0.74469   1.000
    O19     O    0.91060   0.93824   0.74469   1.000
    O20     O    0.49727   0.15037   0.49844   1.000
    O21     O    0.99727   0.15037   0.49844   1.000
    O22     O    0.49342   0.13648   0.63263   1.000
    O23     O    0.99342   0.13648   0.63263   1.000
    O24     O    0.38215   0.12902   0.55883   1.000
    O25     O    0.88216   0.12902   0.55883   1.000
    O26     O    0.44199   0.24439   0.57731   1.000
    O27     O    0.94200   0.24439   0.57731   1.000
    O28     O    0.37640   0.56151   0.12350   1.000
    O29     O    0.87641   0.56151   0.12350   1.000
    O30     O    0.25542   0.57446   0.07661   1.000
    O31     O    0.75543   0.57446   0.07661   1.000
    O32     O    0.35438   0.63296   0.01141   1.000
    O33     O    0.85439   0.63296   0.01141   1.000
    O34     O    0.34514   0.49862   0.01169   1.000
    O35     O    0.84515   0.49862   0.01169   1.000
    O36     O    0.00277   0.99792   0.85153   1.000
    O37     O    0.50278   0.99792   0.85153   1.000
    O38     O    0.00635   0.13244   0.86180   1.000
    O39     O    0.50636   0.13244   0.86180   1.000
    O40     O    0.11782   0.05890   0.87127   1.000
    O41     O    0.49367   0.51390   0.84961   1.000
    O42     O    0.99368   0.51390   0.84961   1.000
    O43     O    0.36122   0.49982   0.86094   1.000
    O44     O    0.86123   0.49982   0.86094   1.000
    O45     O    0.41947   0.62049   0.87360   1.000
    O46     O    0.91948   0.62049   0.87360   1.000
    O47     O    0.41060   0.56175   0.75529   1.000
    O48     O    0.91061   0.56175   0.75529   1.000
    O49     O    0.49720   0.34957   0.00165   1.000
    O50     O    0.99721   0.34957   0.00165   1.000
    O51     O    0.49345   0.36348   0.86743   1.000
    O52     O    0.99346   0.36348   0.86743   1.000
    O53     O    0.38215   0.37099   0.94116   1.000
    O54     O    0.88216   0.37099   0.94110   1.000
    O55     O    0.44195   0.25560   0.92270   1.000
    O56     O    0.94196   0.25560   0.92270   1.000
    O57     O    0.37661   0.12348   0.93832   1.000
    O58     O    0.87661   0.12348   0.93832   1.000
    O59     O    0.25552   0.07671   0.92549   1.000
    O60     O    0.75553   0.07671   0.92549   1.000
    O61     O    0.35431   0.01136   0.86690   1.000
    O62     O    0.85432   0.01136   0.86690   1.000
    O63     O    0.34513   0.01175   0.00130   1.000
    O64     O    0.84514   0.01175   0.00130   1.000
    O65     O    0.49340   0.84902   0.98732   1.000
    O66     O    0.99341   0.84902   0.98732   1.000
    O67     O    0.36098   0.86097   0.00000   1.000
    O68     O    0.86099   0.86097   0.00000   1.000
    O69     O    0.41978   0.87360   0.87990   1.000
    O70     O    0.91979   0.87360   0.87990   1.000
    O71     O    0.41033   0.75542   0.93819   1.000
    O72     O    0.91034   0.75542   0.93819   1.000
    O73     O    0.49724   0.00209   0.14845   1.000
    O74     O    0.99725   0.00209   0.14845   1.000
    O75     O    0.49366   0.86757   0.13819   1.000
    O76     O    0.99366   0.86757   0.13819   1.000
    O77     O    0.38219   0.94111   0.12872   1.000
    O78     O    0.88220   0.94111   0.12872   1.000
    O79     O    0.44188   0.92558   0.24440   1.000
    O80     O    0.94189   0.92558   0.24440   1.000
    O81     O    0.37661   0.37653   0.56167   1.000
    O82     O    0.87662   0.37653   0.56167   1.000
    O83     O    0.25553   0.42329   0.57447   1.000
    O84     O    0.75554   0.42329   0.57447   1.000
    O85     O    0.35430   0.48873   0.63290   1.000
    O86     O    0.85431   0.48873   0.63290   1.000
    O87     O    0.34513   0.48819   0.49850   1.000
    O88     O    0.84513   0.48819   0.49850   1.000
    O89     O    0.49341   0.65100   0.51266   1.000
    O90     O    0.99341   0.65100   0.51266   1.000
    O91     O    0.36099   0.63902   0.49975   1.000
    O92     O    0.86100   0.63902   0.49975   1.000
    O93     O    0.41980   0.62644   0.62008   1.000
    O94     O    0.91981   0.62644   0.62008   1.000
    O95     O    0.41033   0.74460   0.56170   1.000
    O96     O    0.91033   0.74460   0.56170   1.000
    O97     O    0.49724   0.49794   0.35153   1.000
    O98     O    0.99725   0.49794   0.35153   1.000
    O99     O    0.49365   0.63246   0.36179   1.000
    O100    O    0.99366   0.63246   0.36179   1.000
    O101    O    0.38219   0.55893   0.37122   1.000
    O102    O    0.88219   0.55893   0.37122   1.000
    O103    O    0.44191   0.57447   0.25553   1.000
    O104    O    0.94192   0.57447   0.25553   1.000
    O105    O    0.12360   0.06151   0.62349   1.000
    O106    O    0.62361   0.06151   0.62349   1.000
    O107    O    0.24460   0.07443   0.57665   1.000
    O108    O    0.74460   0.07443   0.57665   1.000
    O109    O    0.14569   0.13289   0.51130   1.000
    O110    O    0.64570   0.13289   0.51136   1.000
    O111    O    0.15490   0.99855   0.51174   1.000
    O112    O    0.63877   0.99983   0.36096   1.000
    O113    O    0.08053   0.12051   0.37360   1.000
    O114    O    0.58054   0.12051   0.37360   1.000
    O115    O    0.08942   0.06177   0.25530   1.000
    O116    O    0.58942   0.06177   0.25530   1.000
    O117    O    0.00275   0.84964   0.50155   1.000
    O118    O    0.50275   0.84964   0.50155   1.000
    O119    O    0.00660   0.86353   0.36736   1.000
    O120    O    0.50660   0.86353   0.36736   1.000
    O121    O    0.11786   0.87099   0.44110   1.000
    O122    O    0.61787   0.87099   0.44110   1.000
    O123    O    0.05802   0.75562   0.42268   1.000
    O124    O    0.55803   0.75562   0.42268   1.000
    O125    O    0.12361   0.43850   0.87648   1.000
    O126    O    0.62362   0.43850   0.87648   1.000
    O127    O    0.24459   0.42555   0.92338   1.000
    O128    O    0.74460   0.42555   0.92338   1.000
    O129    O    0.14563   0.36705   0.98857   1.000
    O130    O    0.64563   0.36705   0.98857   1.000
    O131    O    0.15487   0.50138   0.98829   1.000
    O132    O    0.65488   0.50139   0.98829   1.000
    O133    O    0.00634   0.48611   0.15038   1.000
    O134    O    0.50635   0.48611   0.15038   1.000
    O135    O    0.13879   0.50019   0.13905   1.000
    O136    O    0.63880   0.50019   0.13905   1.000
    O137    O    0.08054   0.37952   0.12639   1.000
    O138    O    0.58054   0.37952   0.12639   1.000
    O139    O    0.08941   0.43826   0.24470   1.000
    O140    O    0.58942   0.43826   0.24470   1.000
    O141    O    0.00281   0.65044   0.99833   1.000
    O142    O    0.50282   0.65043   0.99830   1.000
    O143    O    0.00656   0.63653   0.13255   1.000
    O144    O    0.50657   0.63653   0.13250   1.000
    O145    O    0.11786   0.62902   0.05882   1.000
    O146    O    0.61787   0.62902   0.05882   1.000
    O147    O    0.05806   0.74441   0.07729   1.000
    O148    O    0.55807   0.74441   0.07729   1.000
    O149    O    0.12341   0.87653   0.06167   1.000
    O150    O    0.62341   0.87653   0.06167   1.000
    O151    O    0.24449   0.92330   0.07449   1.000
    O152    O    0.74450   0.92330   0.07449   1.000
    O153    O    0.14570   0.98865   0.13309   1.000
    O154    O    0.64571   0.98865   0.13309   1.000
    O155    O    0.15488   0.98826   0.99869   1.000
    O156    O    0.65489   0.98826   0.99869   1.000
    O157    O    0.00661   0.15099   0.01267   1.000
    O158    O    0.50662   0.15099   0.01267   1.000
    O159    O    0.13903   0.13904   0.99975   1.000
    O160    O    0.63904   0.13904   0.99975   1.000
    O161    O    0.08023   0.12641   0.12000   1.000
    O162    O    0.58024   0.12641   0.12000   1.000
    O163    O    0.08968   0.24459   0.06180   1.000
    O164    O    0.58969   0.24459   0.06180   1.000
    O165    O    0.61782   0.05890   0.87127   1.000
    O166    O    0.05813   0.07443   0.75555   1.000
    O167    O    0.55814   0.07443   0.75555   1.000
    O168    O    0.12340   0.62348   0.43831   1.000
    O169    O    0.62341   0.62348   0.43831   1.000
    O170    O    0.24448   0.57672   0.42552   1.000
    O171    O    0.74449   0.57672   0.42552   1.000
    O172    O    0.14571   0.51128   0.36700   1.000
    O173    O    0.64572   0.51128   0.36700   1.000
    O174    O    0.15489   0.51182   0.50141   1.000
    O175    O    0.65489   0.51182   0.50141   1.000
    O176    O    0.00661   0.34901   0.48733   1.000
    O177    O    0.50661   0.34901   0.48733   1.000
    O178    O    0.13902   0.36099   0.50020   1.000
    O179    O    0.63903   0.36099   0.50020   1.000
    O180    O    0.08021   0.37357   0.37990   1.000
    O181    O    0.58022   0.37357   0.37990   1.000
    O182    O    0.08968   0.25541   0.43822   1.000
    O183    O    0.58969   0.25541   0.43822   1.000
    O184    O    0.00277   0.50207   0.64846   1.000
    O185    O    0.50278   0.50207   0.64846   1.000
    O186    O    0.00636   0.36755   0.63819   1.000
    O187    O    0.50637   0.36755   0.63819   1.000
    O188    O    0.11782   0.44108   0.62877   1.000
    O189    O    0.61783   0.44108   0.62877   1.000
    O190    O    0.05810   0.42554   0.74446   1.000
    O191    O    0.55811   0.42554   0.74446   1.000
