# CIF file generated by openbabel 2.4.90, see http://openbabel.sf.net
data_I
_chemical_name_common ''
_cell_length_a 19.006
_cell_length_b 18.833
_cell_length_c 18.822
_cell_angle_alpha 89.995
_cell_angle_beta 90.001
_cell_angle_gamma 89.998
_space_group_name_H-M_alt 'P 1'
_space_group_name_Hall 'P 1'
loop_
    _symmetry_equiv_pos_as_xyz
    x,y,z
loop_
    _atom_site_label
    _atom_site_type_symbol
    _atom_site_fract_x
    _atom_site_fract_y
    _atom_site_fract_z
    _atom_site_occupancy
    P0      P    0.33290   0.93310   0.44489   1.000
    P1      P    0.83291   0.93310   0.44400   1.000
    P2      P    0.42137   0.95143   0.66497   1.000
    P3      P    0.92137   0.95143   0.66497   1.000
    P4      P    0.45429   0.16479   0.56664   1.000
    P5      P    0.95430   0.16479   0.56664   1.000
    P6      P    0.33292   0.56696   0.05509   1.000
    P7      P    0.83293   0.56696   0.05509   1.000
    P8      P    0.42135   0.54855   0.83501   1.000
    P9      P    0.92136   0.54855   0.83501   1.000
    P10     P    0.45428   0.33519   0.93340   1.000
    P11     P    0.95429   0.33519   0.93340   1.000
    P12     P    0.33302   0.05514   0.93292   1.000
    P13     P    0.83303   0.05514   0.93292   1.000
    P14     P    0.42132   0.83496   0.95185   1.000
    P15     P    0.92133   0.83496   0.95185   1.000
    P16     P    0.45433   0.93422   0.16463   1.000
    P17     P    0.95433   0.93422   0.16463   1.000
    P18     P    0.33302   0.44487   0.56701   1.000
    P19     P    0.83303   0.44487   0.56701   1.000
    P20     P    0.42133   0.66506   0.54812   1.000
    P21     P    0.92133   0.66506   0.54812   1.000
    P22     P    0.45433   0.56581   0.33533   1.000
    P23     P    0.95434   0.56581   0.33533   1.000
    P24     P    0.16711   0.06691   0.55509   1.000
    P25     P    0.66712   0.06691   0.55509   1.000
    P26     P    0.07865   0.04858   0.33502   1.000
    P27     P    0.57865   0.04858   0.33502   1.000
    P28     P    0.04572   0.83522   0.43334   1.000
    P29     P    0.54573   0.83522   0.43334   1.000
    P30     P    0.16709   0.43305   0.94490   1.000
    P31     P    0.66710   0.43305   0.94490   1.000
    P32     P    0.07866   0.45146   0.16497   1.000
    P33     P    0.57867   0.45146   0.16497   1.000
    P34     P    0.04573   0.66482   0.06659   1.000
    P35     P    0.54574   0.66482   0.06659   1.000
    P36     P    0.16699   0.94487   0.06707   1.000
    P37     P    0.66700   0.94487   0.06707   1.000
    P38     P    0.07869   0.16505   0.04814   1.000
    P39     P    0.57870   0.16505   0.04814   1.000
    P40     P    0.04569   0.06578   0.83530   1.000
    P41     P    0.54569   0.06578   0.83530   1.000
    P42     P    0.16699   0.55514   0.43290   1.000
    P43     P    0.66700   0.55514   0.43290   1.000
    P44     P    0.07868   0.33495   0.45186   1.000
    P45     P    0.57869   0.33495   0.45186   1.000
    P46     P    0.04568   0.43419   0.66465   1.000
    P47     P    0.54569   0.43419   0.66465   1.000
    O48     O    0.37641   0.93850   0.37600   1.000
    O49     O    0.87642   0.93850   0.37650   1.000
    O50     O    0.25542   0.92558   0.42334   1.000
    O51     O    0.75542   0.92558   0.42334   1.000
    O52     O    0.65490   0.99855   0.51174   1.000
    O53     O    0.00630   0.01397   0.34958   1.000
    O54     O    0.50631   0.01397   0.34958   1.000
    O55     O    0.13876   0.99983   0.36096   1.000
    O56     O    0.35432   0.86711   0.48863   1.000
    O57     O    0.85433   0.86711   0.48863   1.000
    O58     O    0.34511   0.00146   0.48824   1.000
    O59     O    0.84512   0.00146   0.48824   1.000
    O60     O    0.49371   0.98604   0.65040   1.000
    O61     O    0.99372   0.98604   0.65040   1.000
    O62     O    0.36125   0.00000   0.63902   1.000
    O63     O    0.86126   0.00000   0.63902   1.000
    O64     O    0.41948   0.87950   0.62638   1.000
    O65     O    0.91949   0.87950   0.62638   1.000
    O66     O    0.41059   0.93824   0.74469   1.000
    O67     O    0.91060   0.93824   0.74469   1.000
    O68     O    0.49727   0.15037   0.49844   1.000
    O69     O    0.99727   0.15037   0.49844   1.000
    O70     O    0.49342   0.13648   0.63263   1.000
    O71     O    0.99342   0.13648   0.63263   1.000
    O72     O    0.38215   0.12902   0.55883   1.000
    O73     O    0.88216   0.12902   0.55883   1.000
    O74     O    0.44199   0.24439   0.57731   1.000
    O75     O    0.94200   0.24439   0.57731   1.000
    O76     O    0.37640   0.56151   0.12350   1.000
    O77     O    0.87641   0.56151   0.12350   1.000
    O78     O    0.25542   0.57446   0.07661   1.000
    O79     O    0.75543   0.57446   0.07661   1.000
    O80     O    0.35438   0.63296   0.01141   1.000
    O81     O    0.85439   0.63296   0.01141   1.000
    O82     O    0.34514   0.49862   0.01169   1.000
    O83     O    0.84515   0.49862   0.01169   1.000
    O84     O    0.00277   0.99792   0.85153   1.000
    O85     O    0.50278   0.99792   0.85153   1.000
    O86     O    0.00635   0.13244   0.86180   1.000
    O87     O    0.50636   0.13244   0.86180   1.000
    O88     O    0.11782   0.05890   0.87127   1.000
    O89     O    0.49367   0.51390   0.84961   1.000
    O90     O    0.99368   0.51390   0.84961   1.000
    O91     O    0.36122   0.49982   0.86094   1.000
    O92     O    0.86123   0.49982   0.86094   1.000
    O93     O    0.41947   0.62049   0.87360   1.000
    O94     O    0.91948   0.62049   0.87360   1.000
    O95     O    0.41060   0.56175   0.75529   1.000
    O96     O    0.91061   0.56175   0.75529   1.000
    O97     O    0.49720   0.34957   0.00165   1.000
    O98     O    0.99721   0.34957   0.00165   1.000
    O99     O    0.49345   0.36348   0.86743   1.000
    O100    O    0.99346   0.36348   0.86743   1.000
    O101    O    0.38215   0.37099   0.94116   1.000
    O102    O    0.88216   0.37099   0.94110   1.000
    O103    O    0.44195   0.25560   0.92270   1.000
    O104    O    0.94196   0.25560   0.92270   1.000
    O105    O    0.37661   0.12348   0.93832   1.000
    O106    O    0.87661   0.12348   0.93832   1.000
    O107    O    0.25552   0.07671   0.92549   1.000
    O108    O    0.75553   0.07671   0.92549   1.000
    O109    O    0.35431   0.01136   0.86690   1.000
    O110    O    0.85432   0.01136   0.86690   1.000
    O111    O    0.34513   0.01175   0.00130   1.000
    O112    O    0.84514   0.01175   0.00130   1.000
    O113    O    0.49340   0.84902   0.98732   1.000
    O114    O    0.99341   0.84902   0.98732   1.000
    O115    O    0.36098   0.86097   0.00000   1.000
    O116    O    0.86099   0.86097   0.00000   1.000
    O117    O    0.41978   0.87360   0.87990   1.000
    O118    O    0.91979   0.87360   0.87990   1.000
    O119    O    0.41033   0.75542   0.93819   1.000
    O120    O    0.91034   0.75542   0.93819   1.000
    O121    O    0.49724   0.00209   0.14845   1.000
    O122    O    0.99725   0.00209   0.14845   1.000
    O123    O    0.49366   0.86757   0.13819   1.000
    O124    O    0.99366   0.86757   0.13819   1.000
    O125    O    0.38219   0.94111   0.12872   1.000
    O126    O    0.88220   0.94111   0.12872   1.000
    O127    O    0.44188   0.92558   0.24440   1.000
    O128    O    0.94189   0.92558   0.24440   1.000
    O129    O    0.37661   0.37653   0.56167   1.000
    O130    O    0.87662   0.37653   0.56167   1.000
    O131    O    0.25553   0.42329   0.57447   1.000
    O132    O    0.75554   0.42329   0.57447   1.000
    O133    O    0.35430   0.48873   0.63290   1.000
    O134    O    0.85431   0.48873   0.63290   1.000
    O135    O    0.34513   0.48819   0.49850   1.000
    O136    O    0.84513   0.48819   0.49850   1.000
    O137    O    0.49341   0.65100   0.51266   1.000
    O138    O    0.99341   0.65100   0.51266   1.000
    O139    O    0.36099   0.63902   0.49975   1.000
    O140    O    0.86100   0.63902   0.49975   1.000
    O141    O    0.41980   0.62644   0.62008   1.000
    O142    O    0.91981   0.62644   0.62008   1.000
    O143    O    0.41033   0.74460   0.56170   1.000
    O144    O    0.91033   0.74460   0.56170   1.000
    O145    O    0.49724   0.49794   0.35153   1.000
    O146    O    0.99725   0.49794   0.35153   1.000
    O147    O    0.49365   0.63246   0.36179   1.000
    O148    O    0.99366   0.63246   0.36179   1.000
    O149    O    0.38219   0.55893   0.37122   1.000
    O150    O    0.88219   0.55893   0.37122   1.000
    O151    O    0.44191   0.57447   0.25553   1.000
    O152    O    0.94192   0.57447   0.25553   1.000
    O153    O    0.12360   0.06151   0.62349   1.000
    O154    O    0.62361   0.06151   0.62349   1.000
    O155    O    0.24460   0.07443   0.57665   1.000
    O156    O    0.74460   0.07443   0.57665   1.000
    O157    O    0.14569   0.13289   0.51130   1.000
    O158    O    0.64570   0.13289   0.51136   1.000
    O159    O    0.15490   0.99855   0.51174   1.000
    O160    O    0.63877   0.99983   0.36096   1.000
    O161    O    0.08053   0.12051   0.37360   1.000
    O162    O    0.58054   0.12051   0.37360   1.000
    O163    O    0.08942   0.06177   0.25530   1.000
    O164    O    0.58942   0.06177   0.25530   1.000
    O165    O    0.00275   0.84964   0.50155   1.000
    O166    O    0.50275   0.84964   0.50155   1.000
    O167    O    0.00660   0.86353   0.36736   1.000
    O168    O    0.50660   0.86353   0.36736   1.000
    O169    O    0.11786   0.87099   0.44110   1.000
    O170    O    0.61787   0.87099   0.44110   1.000
    O171    O    0.05802   0.75562   0.42268   1.000
    O172    O    0.55803   0.75562   0.42268   1.000
    O173    O    0.12361   0.43850   0.87648   1.000
    O174    O    0.62362   0.43850   0.87648   1.000
    O175    O    0.24459   0.42555   0.92338   1.000
    O176    O    0.74460   0.42555   0.92338   1.000
    O177    O    0.14563   0.36705   0.98857   1.000
    O178    O    0.64563   0.36705   0.98857   1.000
    O179    O    0.15487   0.50138   0.98829   1.000
    O180    O    0.65488   0.50139   0.98829   1.000
    O181    O    0.00634   0.48611   0.15038   1.000
    O182    O    0.50635   0.48611   0.15038   1.000
    O183    O    0.13879   0.50019   0.13905   1.000
    O184    O    0.63880   0.50019   0.13905   1.000
    O185    O    0.08054   0.37952   0.12639   1.000
    O186    O    0.58054   0.37952   0.12639   1.000
    O187    O    0.08941   0.43826   0.24470   1.000
    O188    O    0.58942   0.43826   0.24470   1.000
    O189    O    0.00281   0.65044   0.99833   1.000
    O190    O    0.50282   0.65043   0.99830   1.000
    O191    O    0.00656   0.63653   0.13255   1.000
    O192    O    0.50657   0.63653   0.13250   1.000
    O193    O    0.11786   0.62902   0.05882   1.000
    O194    O    0.61787   0.62902   0.05882   1.000
    O195    O    0.05806   0.74441   0.07729   1.000
    O196    O    0.55807   0.74441   0.07729   1.000
    O197    O    0.12341   0.87653   0.06167   1.000
    O198    O    0.62341   0.87653   0.06167   1.000
    O199    O    0.24449   0.92330   0.07449   1.000
    O200    O    0.74450   0.92330   0.07449   1.000
    O201    O    0.14570   0.98865   0.13309   1.000
    O202    O    0.64571   0.98865   0.13309   1.000
    O203    O    0.15488   0.98826   0.99869   1.000
    O204    O    0.65489   0.98826   0.99869   1.000
    O205    O    0.00661   0.15099   0.01267   1.000
    O206    O    0.50662   0.15099   0.01267   1.000
    O207    O    0.13903   0.13904   0.99975   1.000
    O208    O    0.63904   0.13904   0.99975   1.000
    O209    O    0.08023   0.12641   0.12000   1.000
    O210    O    0.58024   0.12641   0.12000   1.000
    O211    O    0.08968   0.24459   0.06180   1.000
    O212    O    0.58969   0.24459   0.06180   1.000
    O213    O    0.61782   0.05890   0.87127   1.000
    O214    O    0.05813   0.07443   0.75555   1.000
    O215    O    0.55814   0.07443   0.75555   1.000
    O216    O    0.12340   0.62348   0.43831   1.000
    O217    O    0.62341   0.62348   0.43831   1.000
    O218    O    0.24448   0.57672   0.42552   1.000
    O219    O    0.74449   0.57672   0.42552   1.000
    O220    O    0.14571   0.51128   0.36700   1.000
    O221    O    0.64572   0.51128   0.36700   1.000
    O222    O    0.15489   0.51182   0.50141   1.000
    O223    O    0.65489   0.51182   0.50141   1.000
    O224    O    0.00661   0.34901   0.48733   1.000
    O225    O    0.50661   0.34901   0.48733   1.000
    O226    O    0.13902   0.36099   0.50020   1.000
    O227    O    0.63903   0.36099   0.50020   1.000
    O228    O    0.08021   0.37357   0.37990   1.000
    O229    O    0.58022   0.37357   0.37990   1.000
    O230    O    0.08968   0.25541   0.43822   1.000
    O231    O    0.58969   0.25541   0.43822   1.000
    O232    O    0.00277   0.50207   0.64846   1.000
    O233    O    0.50278   0.50207   0.64846   1.000
    O234    O    0.00636   0.36755   0.63819   1.000
    O235    O    0.50637   0.36755   0.63819   1.000
    O236    O    0.11782   0.44108   0.62877   1.000
    O237    O    0.61783   0.44108   0.62877   1.000
    O238    O    0.05810   0.42554   0.74446   1.000
    O239    O    0.55811   0.42554   0.74446   1.000
loop_
    _geom_bond_atom_site_label_1
    _geom_bond_atom_site_label_2
    _geom_bond_distance
    _geom_bond_site_symmetry_2
    _ccdc_geom_bond_type
    O115   P14       1.54161  1_554   S
    O116   P15       1.54161  1_554   S
    O112   P13       1.54181  1_554   S
    O111   P12       1.54181  1_554   S
    O97    P10       1.54565  1_554   S
    O98    P11       1.54565  1_554   S
    O80    P6        1.54510      .   S
    O81    P7        1.54510      .   S
    O83    P7        1.54201      .   S
    O82    P6        1.54201      .   S
    O206   P39       1.54678      .   S
    O205   P38       1.54678      .   S
    P39    O212      1.53411      .   S
    P39    O210      1.53614      .   S
    P39    O208      1.54429  1_554   S
    P38    O211      1.53411      .   S
    P38    O209      1.53614      .   S
    P38    O207      1.54429  1_554   S
    P6     O78       1.53409      .   S
    P6     O76       1.53343      .   S
    P7     O79       1.53409      .   S
    P7     O77       1.53343      .   S
    O194   P35       1.53471      .   S
    O193   P34       1.53471      .   S
    O198   P37       1.53391      .   S
    O197   P36       1.53391      .   S
    P34    O195      1.53045      .   S
    P34    O191      1.54254      .   S
    P34    O189      1.54580  1_554   S
    P35    O196      1.53045      .   S
    P35    O192      1.54178      .   S
    P35    O190      1.54627  1_554   S
    P36    O199      1.53421      .   S
    P36    O201      1.54531      .   S
    P36    O203      1.54180  1_554   S
    P37    O200      1.53421      .   S
    P37    O202      1.54531      .   S
    P37    O204      1.54180  1_554   S
    O186   P33       1.53756      .   S
    O185   P32       1.53756      .   S
    O126   P17       1.53395      .   S
    O125   P16       1.53395      .   S
    O123   P16       1.54345      .   S
    O124   P17       1.54345      .   S
    O183   P32       1.54475      .   S
    O184   P33       1.54475      .   S
    O121   P16       1.54639  1_545   S
    O122   P17       1.54639  1_545   S
    O181   P32       1.54609      .   S
    O182   P33       1.54609      .   S
    P17    O128      1.52863      .   S
    P16    O127      1.52863      .   S
    P33    O188      1.53476      .   S
    P32    O187      1.53476      .   S
    O163   P26       1.53461      .   S
    O164   P27       1.53461      .   S
    O151   P22       1.52911      .   S
    O152   P23       1.52911      .   S
    P27    O54       1.54611      .   S
    P27    O160      1.54481  1_545   S
    P27    O162      1.53750      .   S
    P26    O53       1.54611      .   S
    P26    O55       1.54481  1_545   S
    P26    O161      1.53750      .   S
    P23    O146      1.54658      .   S
    P23    O148      1.54346      .   S
    P23    O150      1.53404      .   S
    P22    O145      1.54658      .   S
    P22    O147      1.54346      .   S
    P22    O149      1.53404      .   S
    O221   P43       1.54418      .   S
    O220   P42       1.54418      .   S
    O167   P28       1.54249      .   S
    O168   P29       1.54249      .   S
    O48    P0        1.54129      .   S
    O49    P1        1.51935      .   S
    O229   P45       1.53762      .   S
    O228   P44       1.53762      .   S
    O171   P28       1.53046      .   S
    O172   P29       1.53044      .   S
    O51    P1        1.52971      .   S
    O50    P0        1.53406      .   S
    O218   P42       1.53411      .   S
    O219   P43       1.53411      .   S
    P43    O217      1.53405      .   S
    P43    O223      1.54309      .   S
    P42    O216      1.53405      .   S
    P42    O222      1.54310      .   S
    P29    O170      1.53462      .   S
    P29    O166      1.54570      .   S
    P28    O169      1.53462      .   S
    P28    O165      1.54570      .   S
    O231   P45       1.53413      .   S
    O230   P44       1.53413      .   S
    P1     O59       1.55081  1_565   S
    P1     O57       1.55412      .   S
    P0     O58       1.54188  1_565   S
    P0     O56       1.54514      .   S
    P44    O224      1.54680      .   S
    P44    O226      1.54385      .   S
    P45    O225      1.54680      .   S
    P45    O227      1.54385      .   S
    O69    P5        1.54554      .   S
    O68    P4        1.54554      .   S
    O135   P18       1.54310      .   S
    O136   P19       1.54310      .   S
    O140   P21       1.54420      .   S
    O139   P20       1.54420      .   S
    O157   P24       1.54564      .   S
    O158   P25       1.54505      .   S
    O52    P25       1.54186  1_565   S
    O159   P24       1.54187  1_565   S
    O137   P20       1.54672      .   S
    O138   P21       1.54672      .   S
    P20    O143      1.53394      .   S
    P20    O141      1.53761      .   S
    P21    O144      1.53394      .   S
    P21    O142      1.53761      .   S
    P25    O156      1.53411      .   S
    P25    O154      1.53353      .   S
    P24    O155      1.53411      .   S
    P24    O153      1.53353      .   S
    O73    P5        1.53471      .   S
    O72    P4        1.53472      .   S
    O130   P19       1.53396      .   S
    O129   P18       1.53396      .   S
    P5     O75       1.53046      .   S
    P5     O71       1.54265      .   S
    P4     O74       1.53046      .   S
    P4     O70       1.54265      .   S
    P19    O132      1.53422      .   S
    P19    O134      1.54404      .   S
    P18    O131      1.53422      .   S
    P18    O133      1.54404      .   S
    O65    P3        1.53761      .   S
    O64    P2        1.53761      .   S
    O237   P47       1.53396      .   S
    O236   P46       1.53396      .   S
    O234   P46       1.54345      .   S
    O235   P47       1.54345      .   S
    O63    P3        1.54284  1_545   S
    O62    P2        1.54284  1_545   S
    O232   P46       1.54653      .   S
    O233   P47       1.54653      .   S
    O60    P2        1.54615      .   S
    O61    P3        1.54615      .   S
    P46    O238      1.52930      .   S
    P47    O239      1.52930      .   S
    P2     O66       1.53461      .   S
    P3     O67       1.53461      .   S
    O95    P8        1.53458      .   S
    O96    P9        1.53458      .   S
    O215   P41       1.52826      .   S
    O214   P40       1.52826      .   S
    P8     O89       1.54614      .   S
    P8     O91       1.54481      .   S
    P8     O93       1.53765      .   S
    P9     O90       1.54613      .   S
    P9     O92       1.54481      .   S
    P9     O94       1.53765      .   S
    P40    O84       1.54656  1_545   S
    P40    O86       1.54383      .   S
    P40    O88       1.53445      .   S
    P41    O85       1.54656  1_545   S
    P41    O87       1.54383      .   S
    P41    O213      1.53445      .   S
    O109   P12       1.54532      .   S
    O110   P13       1.54532      .   S
    O100   P11       1.54269      .   S
    O99    P10       1.54269      .   S
    O173   P30       1.53360      .   S
    O174   P31       1.53360      .   S
    O118   P15       1.53764      .   S
    O117   P14       1.53764      .   S
    O103   P10       1.53045      .   S
    O104   P11       1.53045      .   S
    O176   P31       1.53409      .   S
    O175   P30       1.53409      .   S
    O107   P12       1.53422      .   S
    O108   P13       1.53422      .   S
    P13    O106      1.53393      .   S
    P12    O105      1.53393      .   S
    P11    O102      1.53458      .   S
    P10    O101      1.53469      .   S
    O119   P14       1.53409      .   S
    O120   P15       1.53409      .   S
    P31    O180      1.54191      .   S
    P31    O178      1.54500      .   S
    P30    O179      1.54190      .   S
    P30    O177      1.54500      .   S
    P15    O114      1.54678      .   S
    P14    O113      1.54678      .   S
