# CIF file generated by openbabel 2.4.90, see http://openbabel.sf.net
data_I
_chemical_name_common ''
_cell_length_a 19.006
_cell_length_b 18.833
_cell_length_c 18.822
_cell_angle_alpha 89.995
_cell_angle_beta 90.001
_cell_angle_gamma 89.998
_space_group_name_H-M_alt 'P 1'
_space_group_name_Hall 'P 1'
loop_
    _symmetry_equiv_pos_as_xyz
    x,y,z
loop_
    _atom_site_label
    _atom_site_type_symbol
    _atom_site_fract_x
    _atom_site_fract_y
    _atom_site_fract_z
    _atom_site_occupancy
    N0      N    0.83291   0.93310   0.44400   1.000
    N1      N    0.33290   0.93310   0.44489   1.000
    N2      N    0.33292   0.56696   0.05509   1.000
    N3      N    0.57869   0.33495   0.45186   1.000
    N4      N    0.04569   0.06578   0.83530   1.000
    N5      N    0.95430   0.16479   0.56664   1.000
    N6      N    0.04573   0.66482   0.06659   1.000
    N7      N    0.54573   0.83522   0.43334   1.000
    N8      N    0.04572   0.83522   0.43334   1.000
    N9      N    0.95434   0.56581   0.33533   1.000
    N10     N    0.16709   0.43305   0.94490   1.000
    N11     N    0.07866   0.45146   0.16497   1.000
    N12     N    0.92137   0.95143   0.66497   1.000
    N13     N    0.45429   0.16479   0.56664   1.000
    N14     N    0.42132   0.83496   0.95185   1.000
    N15     N    0.83293   0.56696   0.05509   1.000
    N16     N    0.92133   0.66506   0.54812   1.000
    N17     N    0.42133   0.66506   0.54812   1.000
    N18     N    0.45433   0.93422   0.16463   1.000
    N19     N    0.95429   0.33519   0.93340   1.000
    N20     N    0.42135   0.54855   0.83501   1.000
    N21     N    0.33302   0.05514   0.93292   1.000
    N22     N    0.54574   0.66482   0.06659   1.000
    N23     N    0.83303   0.44487   0.56701   1.000
    N24     N    0.16699   0.94487   0.06707   1.000
    N25     N    0.45433   0.56581   0.33533   1.000
    N26     N    0.66712   0.06691   0.55509   1.000
    N27     N    0.66700   0.94487   0.06707   1.000
    N28     N    0.33302   0.44487   0.56701   1.000
    N29     N    0.07865   0.04858   0.33502   1.000
    N30     N    0.57865   0.04858   0.33502   1.000
    N31     N    0.07869   0.16505   0.04814   1.000
    N32     N    0.54569   0.43419   0.66465   1.000
    N33     N    0.95433   0.93422   0.16463   1.000
    N34     N    0.04568   0.43419   0.66465   1.000
    N35     N    0.45428   0.33519   0.93340   1.000
    N36     N    0.57870   0.16505   0.04814   1.000
    N37     N    0.07868   0.33495   0.45186   1.000
    N38     N    0.92133   0.83496   0.95185   1.000
    N39     N    0.57867   0.45146   0.16497   1.000
    N40     N    0.16699   0.55514   0.43290   1.000
    N41     N    0.42137   0.95143   0.66497   1.000
    N42     N    0.92136   0.54855   0.83501   1.000
    N43     N    0.66710   0.43305   0.94490   1.000
    N44     N    0.54569   0.06578   0.83530   1.000
    N45     N    0.16711   0.06691   0.55509   1.000
    N46     N    0.66700   0.55514   0.43290   1.000
    N47     N    0.83303   0.05514   0.93292   1.000
    Zr48    Zr   0.04181   0.83451   0.06573   1.000
    O49     O    0.02366   0.83995   0.03633   1.000
    O50     O    0.07241   0.85027   0.06421   1.000
    O51     O    0.02376   0.84691   0.09290   1.000
    O52     O    0.04790   0.80072   0.07006   1.000
    Zr53    Zr   0.54182   0.83451   0.06573   1.000
    O54     O    0.52376   0.84691   0.09290   1.000
    O55     O    0.52366   0.83995   0.03633   1.000
    O56     O    0.57242   0.85027   0.06421   1.000
    O57     O    0.54791   0.80072   0.07006   1.000
    Zr58    Zr   0.07822   0.04473   0.16470   1.000
    O59     O    0.04786   0.02874   0.15861   1.000
    O60     O    0.07897   0.07536   0.14794   1.000
    O61     O    0.08242   0.05112   0.19867   1.000
    O62     O    0.10352   0.02370   0.15285   1.000
    Zr63    Zr   0.04181   0.66552   0.43425   1.000
    O64     O    0.02375   0.65312   0.40708   1.000
    O65     O    0.07240   0.64975   0.43577   1.000
    O66     O    0.04789   0.69931   0.42991   1.000
    O67     O    0.02366   0.66007   0.46365   1.000
    Zr68    Zr   0.83266   0.56603   0.44902   1.000
    O69     O    0.85124   0.56337   0.41984   1.000
    O70     O    0.84329   0.59340   0.46804   1.000
    O71     O    0.79960   0.57004   0.44021   1.000
    O72     O    0.83734   0.53684   0.46757   1.000
    Zr73    Zr   0.04196   0.06434   0.66535   1.000
    O74     O    0.07258   0.06328   0.64965   1.000
    O75     O    0.02376   0.09139   0.65308   1.000
    O76     O    0.02387   0.03498   0.65974   1.000
    O77     O    0.04802   0.06812   0.69917   1.000
    Zr78    Zr   0.54197   0.06434   0.66535   1.000
    O79     O    0.52376   0.09139   0.65308   1.000
    O80     O    0.52387   0.03498   0.65974   1.000
    O81     O    0.54803   0.06812   0.69917   1.000
    O82     O    0.57258   0.06328   0.64965   1.000
    Zr83    Zr   0.83284   0.05107   0.56610   1.000
    O84     O    0.83745   0.03246   0.53690   1.000
    O85     O    0.84350   0.03192   0.59344   1.000
    O86     O    0.79975   0.05983   0.57006   1.000
    O87     O    0.85134   0.08030   0.56337   1.000
    Zr88    Zr   0.45806   0.56440   0.16533   1.000
    O89     O    0.45200   0.56817   0.19915   1.000
    O90     O    0.42743   0.56331   0.14964   1.000
    O91     O    0.47625   0.59145   0.15302   1.000
    O92     O    0.47617   0.53504   0.15972   1.000
    Zr93    Zr   0.07829   0.33500   0.04460   1.000
    O94     O    0.07913   0.35169   0.07527   1.000
    O95     O    0.04788   0.34046   0.02849   1.000
    O96     O    0.10354   0.34702   0.02359   1.000
    O97     O    0.08256   0.30109   0.05105   1.000
    Zr98    Zr   0.66736   0.43398   0.55096   1.000
    O99     O    0.70043   0.42997   0.55978   1.000
    O100    O    0.65674   0.40661   0.53192   1.000
    O101    O    0.66269   0.46317   0.53238   1.000
    O102    O    0.64879   0.43664   0.58014   1.000
    Zr103   Zr   0.57823   0.04473   0.16470   1.000
    O104    O    0.60353   0.02370   0.15285   1.000
    O105    O    0.54786   0.02874   0.15861   1.000
    O106    O    0.57898   0.07536   0.14794   1.000
    O107    O    0.58243   0.05112   0.19867   1.000
    Zr108   Zr   0.16718   0.55107   0.06610   1.000
    O109    O    0.14869   0.58030   0.06337   1.000
    O110    O    0.15654   0.53199   0.09346   1.000
    O111    O    0.20027   0.55984   0.07004   1.000
    O112    O    0.16257   0.53244   0.03692   1.000
    Zr113   Zr   0.42180   0.54475   0.66468   1.000
    O114    O    0.45217   0.52874   0.65860   1.000
    O115    O    0.42105   0.57538   0.64796   1.000
    O116    O    0.41760   0.55112   0.69866   1.000
    O117    O    0.39649   0.52374   0.65276   1.000
    Zr118   Zr   0.33265   0.93398   0.05093   1.000
    O119    O    0.34328   0.90660   0.03183   1.000
    O120    O    0.29959   0.92998   0.05976   1.000
    O121    O    0.35123   0.93666   0.08010   1.000
    O122    O    0.33733   0.96315   0.03232   1.000
    Zr123   Zr   0.33284   0.05107   0.56610   1.000
    O124    O    0.33744   0.03246   0.53690   1.000
    O125    O    0.34349   0.03192   0.59344   1.000
    O126    O    0.35133   0.08030   0.56337   1.000
    O127    O    0.29975   0.05983   0.57006   1.000
    Zr128   Zr   0.66719   0.55107   0.06610   1.000
    O129    O    0.65654   0.53199   0.09346   1.000
    O130    O    0.64869   0.58030   0.06337   1.000
    O131    O    0.70028   0.55984   0.07004   1.000
    O132    O    0.66257   0.53244   0.03692   1.000
    Zr133   Zr   0.57822   0.45526   0.33530   1.000
    O134    O    0.57897   0.42463   0.35202   1.000
    O135    O    0.60353   0.47627   0.34719   1.000
    O136    O    0.54785   0.47127   0.34139   1.000
    O137    O    0.58242   0.44888   0.30132   1.000
    Zr138   Zr   0.66737   0.06603   0.94905   1.000
    O139    O    0.70043   0.07003   0.94021   1.000
    O140    O    0.66269   0.03686   0.96766   1.000
    O141    O    0.65674   0.09341   0.96806   1.000
    O142    O    0.64879   0.06335   0.91988   1.000
    Zr143   Zr   0.42179   0.95528   0.83528   1.000
    O144    O    0.42104   0.92465   0.85201   1.000
    O145    O    0.41759   0.94889   0.80131   1.000
    O146    O    0.45216   0.97127   0.84137   1.000
    O147    O    0.39649   0.97631   0.84714   1.000
    Zr148   Zr   0.45820   0.33449   0.56574   1.000
    O149    O    0.47636   0.33994   0.53634   1.000
    O150    O    0.47626   0.34689   0.59291   1.000
    O151    O    0.42761   0.35026   0.56421   1.000
    O152    O    0.45212   0.30070   0.57008   1.000
    Zr153   Zr   0.16717   0.94894   0.43389   1.000
    O154    O    0.14868   0.91971   0.43659   1.000
    O155    O    0.15652   0.96802   0.40654   1.000
    O156    O    0.20026   0.94018   0.42993   1.000
    O157    O    0.16257   0.96754   0.46308   1.000
    Zr158   Zr   0.95821   0.16550   0.93420   1.000
    O159    O    0.95212   0.19929   0.92989   1.000
    O160    O    0.97636   0.16006   0.96363   1.000
    O161    O    0.97626   0.15310   0.90705   1.000
    O162    O    0.92761   0.14974   0.93574   1.000
    Zr163   Zr   0.16736   0.06603   0.94905   1.000
    O164    O    0.15673   0.09341   0.96806   1.000
    O165    O    0.16268   0.03686   0.96766   1.000
    O166    O    0.14878   0.06335   0.91988   1.000
    O167    O    0.20042   0.07003   0.94021   1.000
    Zr168   Zr   0.95806   0.56440   0.16533   1.000
    O169    O    0.97625   0.59145   0.15304   1.000
    O170    O    0.95201   0.56817   0.19915   1.000
    O171    O    0.97617   0.53504   0.15972   1.000
    O172    O    0.92744   0.56331   0.14964   1.000
    Zr173   Zr   0.54182   0.66552   0.43425   1.000
    O174    O    0.54790   0.69931   0.42991   1.000
    O175    O    0.57241   0.64975   0.43577   1.000
    O176    O    0.52375   0.65312   0.40708   1.000
    O177    O    0.52366   0.66007   0.46365   1.000
    Zr178   Zr   0.16735   0.43398   0.55096   1.000
    O179    O    0.16268   0.46317   0.53238   1.000
    O180    O    0.15673   0.40661   0.53192   1.000
    O181    O    0.14878   0.43664   0.58014   1.000
    O182    O    0.20042   0.42997   0.55978   1.000
    Zr183   Zr   0.07821   0.45526   0.33530   1.000
    O184    O    0.08241   0.44888   0.30132   1.000
    O185    O    0.07896   0.42463   0.35202   1.000
    O186    O    0.10352   0.47627   0.34719   1.000
    O187    O    0.04785   0.47127   0.34139   1.000
    Zr188   Zr   0.33283   0.44894   0.93380   1.000
    O189    O    0.29974   0.44017   0.92989   1.000
    O190    O    0.35132   0.41971   0.93656   1.000
    O191    O    0.34347   0.46802   0.90648   1.000
    O192    O    0.33744   0.46757   0.96301   1.000
    Zr193   Zr   0.95806   0.93567   0.33463   1.000
    O194    O    0.97626   0.90862   0.34690   1.000
    O195    O    0.97615   0.96503   0.34024   1.000
    O196    O    0.92744   0.93673   0.35033   1.000
    O197    O    0.95199   0.93188   0.30079   1.000
    Zr198   Zr   0.57830   0.33500   0.04460   1.000
    O199    O    0.60355   0.34702   0.02359   1.000
    O200    O    0.57914   0.35169   0.07527   1.000
    O201    O    0.58257   0.30109   0.05105   1.000
    O202    O    0.54788   0.34046   0.02849   1.000
    Zr203   Zr   0.54196   0.43561   0.83466   1.000
    O204    O    0.57258   0.43670   0.85034   1.000
    O205    O    0.54802   0.43184   0.80083   1.000
    O206    O    0.52385   0.46497   0.84027   1.000
    O207    O    0.52377   0.40856   0.84695   1.000
    Zr208   Zr   0.33266   0.56603   0.44902   1.000
    O209    O    0.34328   0.59340   0.46804   1.000
    O210    O    0.29959   0.57004   0.44021   1.000
    O211    O    0.35123   0.56337   0.41984   1.000
    O212    O    0.33733   0.53684   0.46757   1.000
    Zr213   Zr   0.92180   0.95528   0.83528   1.000
    O214    O    0.91760   0.94889   0.80131   1.000
    O215    O    0.92105   0.92465   0.85201   1.000
    O216    O    0.95216   0.97127   0.84137   1.000
    O217    O    0.89649   0.97631   0.84714   1.000
    Zr218   Zr   0.04195   0.43561   0.83466   1.000
    O219    O    0.07258   0.43670   0.85034   1.000
    O220    O    0.02377   0.40856   0.84695   1.000
    O221    O    0.04801   0.43184   0.80083   1.000
    O222    O    0.02385   0.46497   0.84027   1.000
    Zr223   Zr   0.45820   0.16550   0.93420   1.000
    O224    O    0.45211   0.19929   0.92989   1.000
    O225    O    0.47636   0.16006   0.96363   1.000
    O226    O    0.47626   0.15310   0.90705   1.000
    O227    O    0.42760   0.14974   0.93574   1.000
    Zr228   Zr   0.83283   0.44894   0.93380   1.000
    O229    O    0.83745   0.46757   0.96301   1.000
    O230    O    0.84348   0.46802   0.90648   1.000
    O231    O    0.85133   0.41971   0.93654   1.000
    O232    O    0.79975   0.44017   0.92989   1.000
    Zr233   Zr   0.07831   0.16500   0.45542   1.000
    O234    O    0.04792   0.15951   0.47155   1.000
    O235    O    0.08257   0.19890   0.44897   1.000
    O236    O    0.10358   0.15296   0.47637   1.000
    O237    O    0.07914   0.14831   0.42474   1.000
    Zr238   Zr   0.45805   0.93567   0.33463   1.000
    O239    O    0.47626   0.90862   0.34690   1.000
    O240    O    0.45199   0.93188   0.30079   1.000
    O241    O    0.42743   0.93673   0.35014   1.000
    O242    O    0.47615   0.96503   0.34024   1.000
    Zr243   Zr   0.95821   0.33449   0.56574   1.000
    O244    O    0.97627   0.34689   0.59291   1.000
    O245    O    0.95213   0.30070   0.57008   1.000
    O246    O    0.92761   0.35026   0.56421   1.000
    O247    O    0.97636   0.33994   0.53634   1.000
    Zr248   Zr   0.92181   0.54475   0.66468   1.000
    O249    O    0.91761   0.55112   0.69866   1.000
    O250    O    0.92106   0.57538   0.64796   1.000
    O251    O    0.95217   0.52874   0.65860   1.000
    O252    O    0.89650   0.52374   0.65276   1.000
    Zr253   Zr   0.92171   0.83501   0.54457   1.000
    O254    O    0.89644   0.84705   0.52359   1.000
    O255    O    0.91744   0.80111   0.55099   1.000
    O256    O    0.95210   0.84050   0.52844   1.000
    O257    O    0.92088   0.85170   0.57525   1.000
    Zr258   Zr   0.57832   0.16500   0.45542   1.000
    O259    O    0.58258   0.19890   0.44897   1.000
    O260    O    0.57915   0.14831   0.42474   1.000
    O261    O    0.60358   0.15296   0.47640   1.000
    O262    O    0.54792   0.15951   0.47155   1.000
    Zr263   Zr   0.66718   0.94894   0.43389   1.000
    O264    O    0.65653   0.96802   0.40654   1.000
    O265    O    0.64869   0.91971   0.43659   1.000
    O266    O    0.70027   0.94018   0.42993   1.000
    O267    O    0.66258   0.96754   0.46308   1.000
    Zr268   Zr   0.83266   0.93398   0.05093   1.000
    O269    O    0.79960   0.92998   0.05976   1.000
    O270    O    0.85124   0.93666   0.08010   1.000
    O271    O    0.84328   0.90660   0.03183   1.000
    O272    O    0.83734   0.96315   0.03232   1.000
    Zr273   Zr   0.42172   0.66501   0.95539   1.000
    O274    O    0.45213   0.65955   0.97148   1.000
    O275    O    0.39647   0.65299   0.97640   1.000
    O276    O    0.41745   0.69892   0.94894   1.000
    O277    O    0.42088   0.64831   0.92472   1.000
    Zr278   Zr   0.42170   0.83501   0.54457   1.000
    O279    O    0.42087   0.85170   0.57525   1.000
    O280    O    0.45210   0.84050   0.52844   1.000
    O281    O    0.41744   0.80111   0.55099   1.000
    O282    O    0.39643   0.84705   0.52359   1.000
    Zr283   Zr   0.92173   0.66501   0.95539   1.000
    O284    O    0.95214   0.65955   0.97149   1.000
    O285    O    0.89648   0.65299   0.97640   1.000
    O286    O    0.92089   0.64831   0.92472   1.000
    O287    O    0.91746   0.69892   0.94894   1.000
loop_
    _geom_bond_atom_site_label_1
    _geom_bond_atom_site_label_2
    _geom_bond_distance
    _geom_bond_site_symmetry_2
    _ccdc_geom_bond_type
    Zr48   O49       0.66013      .   S
    N38    O49       2.51384  1_656   S
    Zr48   O50       0.65354      .   S
    N24    O50       2.53155      .   S
    Zr48   O51       0.65868      .   S
    N33    O51       2.50361  1_655   S
    Zr48   O52       0.65186      .   S
    N6     O52       2.56058      .   S
    Zr53   O54       0.65874      .   S
    N18    O54       2.50371      .   S
    Zr53   O55       0.66019      .   S
    N14    O55       2.51399  1_556   S
    Zr53   O56       0.65354      .   S
    N27    O56       2.53155      .   S
    Zr53   O57       0.65186      .   S
    N22    O57       2.56058      .   S
    Zr58   O59       0.66099      .   S
    N33    O59       2.51808  1_665   S
    Zr58   O60       0.65762      .   S
    N31    O60       2.52610      .   S
    Zr58   O61       0.65558      .   S
    N29    O61       2.56773      .   S
    Zr58   O62       0.66179      .   S
    N24    O62       2.50325  1_565   S
    Zr63   O64       0.65868      .   S
    N9     O64       2.50368  1_655   S
    Zr63   O65       0.65353      .   S
    N40    O65       2.53173      .   S
    Zr63   O66       0.65186      .   S
    N8     O66       2.56079      .   S
    Zr63   O67       0.66014      .   S
    N16    O67       2.51371  1_655   S
    Zr68   O69       0.65474      .   S
    N9     O69       2.52435      .   S
    Zr68   O70       0.65937      .   S
    N16    O70       2.50870      .   S
    Zr68   O71       0.65435      .   S
    N46    O71       2.53949      .   S
    Zr68   O72       0.65728      .   S
    N23    O72       2.55125      .   S
    Zr73   O74       0.65287      .   S
    N45    O74       2.52998      .   S
    Zr73   O75       0.65768      .   S
    N5     O75       2.51000  1_655   S
    Zr73   O76       0.65970      .   S
    N12    O76       2.50610  1_665   S
    Zr73   O77       0.65091      .   S
    N4     O77       2.56291      .   S
    Zr78   O79       0.65773      .   S
    N13    O79       2.51009      .   S
    Zr78   O80       0.65975      .   S
    N41    O80       2.50624  1_565   S
    Zr78   O81       0.65091      .   S
    N44    O81       2.56291      .   S
    Zr78   O82       0.65288      .   S
    N26    O82       2.52999      .   S
    Zr83   O84       0.65761      .   S
    N0     O84       2.56277  1_565   S
    Zr83   O85       0.66027      .   S
    N12    O85       2.50997  1_565   S
    Zr83   O86       0.65444      .   S
    N26    O86       2.54007      .   S
    Zr83   O87       0.65520      .   S
    N5     O87       2.52296      .   S
    Zr88   O89       0.65087      .   S
    N25    O89       2.56385      .   S
    Zr88   O90       0.65291      .   S
    N2     O90       2.52961      .   S
    Zr88   O91       0.65785      .   S
    N22    O91       2.51001      .   S
    Zr88   O92       0.65977      .   S
    N39    O92       2.50652      .   S
    Zr93   O94       0.65760      .   S
    N11    O94       2.52608      .   S
    Zr93   O95       0.66064      .   S
    N19    O95       2.52542  1_656   S
    Zr93   O96       0.66180      .   S
    N10    O96       2.50552  1_556   S
    Zr93   O97       0.65499      .   S
    N31    O97       2.56371      .   S
    Zr98   O99       0.65437      .   S
    N23    O99       2.53941      .   S
    Zr98   O100      0.65948      .   S
    N3     O100      2.50856      .   S
    Zr98   O101      0.65755      .   S
    N46    O101      2.55184      .   S
    Zr98   O102      0.65480      .   S
    N32    O102      2.52430      .   S
    Zr103  O104      0.66179      .   S
    N27    O104      2.50325  1_565   S
    Zr103  O105      0.66109      .   S
    N18    O105      2.51821  1_565   S
    Zr103  O106      0.65762      .   S
    N36    O106      2.52610      .   S
    Zr103  O107      0.65558      .   S
    N30    O107      2.56773      .   S
    Zr108  O109      0.65519      .   S
    N6     O109      2.52317      .   S
    Zr108  O110      0.65968      .   S
    N11    O110      2.51047      .   S
    Zr108  O111      0.65445      .   S
    N2     O111      2.54024      .   S
    Zr108  O112      0.65763      .   S
    N10    O112      2.55177  1_556   S
    Zr113  O114      0.66109      .   S
    N32    O114      2.51847      .   S
    Zr113  O115      0.65735      .   S
    N17    O115      2.52644      .   S
    Zr113  O116      0.65562      .   S
    N20    O116      2.56784      .   S
    Zr113  O117      0.66205      .   S
    N28    O117      2.50339      .   S
    Zr118  O119      0.66026      .   S
    N14    O119      2.50749  1_556   S
    Zr118  O120      0.65437      .   S
    N24    O120      2.53942      .   S
    Zr118  O121      0.65474      .   S
    N18    O121      2.52440      .   S
    Zr118  O122      0.65744      .   S
    N21    O122      2.55112  1_546   S
    Zr123  O124      0.65761      .   S
    N1     O124      2.55137  1_565   S
    Zr123  O125      0.66027      .   S
    N41    O125      2.50997  1_565   S
    Zr123  O126      0.65519      .   S
    N13    O126      2.52297      .   S
    Zr123  O127      0.65444      .   S
    N45    O127      2.54007      .   S
    Zr128  O129      0.65968      .   S
    N39    O129      2.51047      .   S
    Zr128  O130      0.65518      .   S
    N22    O130      2.52316      .   S
    Zr128  O131      0.65445      .   S
    N15    O131      2.54025      .   S
    Zr128  O132      0.65763      .   S
    N43    O132      2.55177  1_556   S
    Zr133  O134      0.65734      .   S
    N3     O134      2.52645      .   S
    Zr133  O135      0.66186      .   S
    N46    O135      2.50290      .   S
    Zr133  O136      0.66110      .   S
    N25    O136      2.51848      .   S
    Zr133  O137      0.65555      .   S
    N39    O137      2.56791      .   S
    Zr138  O139      0.65436      .   S
    N47    O139      2.53940      .   S
    Zr138  O140      0.65748      .   S
    N27    O140      2.55120  1_564   S
    Zr138  O141      0.65937      .   S
    N36    O141      2.50858  1_554   S
    Zr138  O142      0.65468      .   S
    N44    O142      2.52504      .   S
    Zr143  O144      0.65735      .   S
    N14    O144      2.52666      .   S
    Zr143  O145      0.65552      .   S
    N41    O145      2.56761      .   S
    Zr143  O146      0.66109      .   S
    N44    O146      2.51824  1_545   S
    Zr143  O147      0.66182      .   S
    N21    O147      2.50334  1_545   S
    Zr148  O149      0.66020      .   S
    N3     O149      2.51399      .   S
    Zr148  O150      0.65869      .   S
    N32    O150      2.50372      .   S
    Zr148  O151      0.65354      .   S
    N28    O151      2.53170      .   S
    Zr148  O152      0.65186      .   S
    N13    O152      2.56078      .   S
    Zr153  O154      0.65516      .   S
    N8     O154      2.52296      .   S
    Zr153  O155      0.65963      .   S
    N29    O155      2.51072  1_545   S
    Zr153  O156      0.65444      .   S
    N1     O156      2.54004      .   S
    Zr153  O157      0.65755      .   S
    N45    O157      2.55129  1_545   S
    Zr158  O159      0.65181      .   S
    N19    O159      2.56061      .   S
    Zr158  O160      0.66049      .   S
    N31    O160      2.51429  1_454   S
    Zr158  O161      0.65836      .   S
    N4     O161      2.50385  1_455   S
    Zr158  O162      0.65355      .   S
    N47    O162      2.53154      .   S
    Zr163  O164      0.65937      .   S
    N31    O164      2.50858  1_554   S
    Zr163  O165      0.65748      .   S
    N24    O165      2.55120  1_564   S
    Zr163  O166      0.65468      .   S
    N4     O166      2.52504      .   S
    Zr163  O167      0.65436      .   S
    N21    O167      2.53940      .   S
    Zr168  O169      0.65767      .   S
    N6     O169      2.51014  1_455   S
    Zr168  O170      0.65087      .   S
    N9     O170      2.56385      .   S
    Zr168  O171      0.65971      .   S
    N11    O171      2.50637  1_455   S
    Zr168  O172      0.65291      .   S
    N15    O172      2.52961      .   S
    Zr173  O174      0.65187      .   S
    N7     O174      2.56078      .   S
    Zr173  O175      0.65353      .   S
    N46    O175      2.53173      .   S
    Zr173  O176      0.65874      .   S
    N25    O176      2.50378      .   S
    Zr173  O177      0.66020      .   S
    N17    O177      2.51386      .   S
    Zr178  O179      0.65755      .   S
    N40    O179      2.55185      .   S
    Zr178  O180      0.65948      .   S
    N37    O180      2.50856      .   S
    Zr178  O181      0.65480      .   S
    N34    O181      2.52430      .   S
    Zr178  O182      0.65437      .   S
    N28    O182      2.53941      .   S
    Zr183  O184      0.65555      .   S
    N11    O184      2.56791      .   S
    Zr183  O185      0.65734      .   S
    N37    O185      2.52645      .   S
    Zr183  O186      0.66186      .   S
    N40    O186      2.50290      .   S
    Zr183  O187      0.66100      .   S
    N9     O187      2.51835  1_655   S
    Zr188  O189      0.65438      .   S
    N10    O189      2.54036      .   S
    Zr188  O190      0.65523      .   S
    N35    O190      2.52312      .   S
    Zr188  O191      0.65919      .   S
    N20    O191      2.51001      .   S
    Zr188  O192      0.65810      .   S
    N2     O192      2.55255  1_554   S
    Zr193  O194      0.65769      .   S
    N8     O194      2.50993  1_455   S
    Zr193  O195      0.65970      .   S
    N29    O195      2.50609  1_445   S
    Zr193  O196      0.65290      .   S
    N0     O196      2.51819      .   S
    Zr193  O197      0.65112      .   S
    N33    O197      2.56364      .   S
    Zr198  O199      0.66180      .   S
    N43    O199      2.50552  1_556   S
    Zr198  O200      0.65760      .   S
    N39    O200      2.52608      .   S
    Zr198  O201      0.65499      .   S
    N36    O201      2.56371      .   S
    Zr198  O202      0.66074      .   S
    N35    O202      2.52555  1_556   S
    Zr203  O204      0.65288      .   S
    N43    O204      2.52968      .   S
    Zr203  O205      0.65087      .   S
    N32    O205      2.56404      .   S
    Zr203  O206      0.65977      .   S
    N20    O206      2.50653      .   S
    Zr203  O207      0.65770      .   S
    N35    O207      2.51028      .   S
    Zr208  O209      0.65937      .   S
    N17    O209      2.50870      .   S
    Zr208  O210      0.65435      .   S
    N40    O210      2.53949      .   S
    Zr208  O211      0.65474      .   S
    N25    O211      2.52435      .   S
    Zr208  O212      0.65728      .   S
    N28    O212      2.55125      .   S
    Zr213  O214      0.65552      .   S
    N12    O214      2.56761      .   S
    Zr213  O215      0.65735      .   S
    N38    O215      2.52666      .   S
    Zr213  O216      0.66099      .   S
    N4     O216      2.51811  1_445   S
    Zr213  O217      0.66182      .   S
    N47    O217      2.50334  1_545   S
    Zr218  O219      0.65288      .   S
    N10    O219      2.52968      .   S
    Zr218  O220      0.65764      .   S
    N19    O220      2.51019  1_655   S
    Zr218  O221      0.65087      .   S
    N34    O221      2.56404      .   S
    Zr218  O222      0.65971      .   S
    N42    O222      2.50638  1_655   S
    Zr223  O224      0.65181      .   S
    N35    O224      2.56061      .   S
    Zr223  O225      0.66055      .   S
    N36    O225      2.51443  1_554   S
    Zr223  O226      0.65841      .   S
    N44    O226      2.50395      .   S
    Zr223  O227      0.65355      .   S
    N21    O227      2.53154      .   S
    Zr228  O229      0.65810      .   S
    N15    O229      2.55254  1_554   S
    Zr228  O230      0.65919      .   S
    N42    O230      2.51000      .   S
    Zr228  O231      0.65520      .   S
    N19    O231      2.52312      .   S
    Zr228  O232      0.65438      .   S
    N43    O232      2.54036      .   S
    Zr233  O234      0.66064      .   S
    N5     O234      2.52571  1_655   S
    Zr233  O235      0.65501      .   S
    N37    O235      2.56384      .   S
    Zr233  O236      0.66148      .   S
    N45    O236      2.50571      .   S
    Zr233  O237      0.65765      .   S
    N29    O237      2.52592      .   S
    Zr238  O239      0.65775      .   S
    N7     O239      2.51003      .   S
    Zr238  O240      0.65112      .   S
    N18    O240      2.56364      .   S
    Zr238  O241      0.65131      .   S
    N1     O241      2.53243      .   S
    Zr238  O242      0.65976      .   S
    N30    O242      2.50624  1_545   S
    Zr243  O244      0.65863      .   S
    N34    O244      2.50362  1_455   S
    Zr243  O245      0.65186      .   S
    N5     O245      2.56078      .   S
    Zr243  O246      0.65354      .   S
    N23    O246      2.53170      .   S
    Zr243  O247      0.66014      .   S
    N37    O247      2.51384  1_455   S
    Zr248  O249      0.65562      .   S
    N42    O249      2.56784      .   S
    Zr248  O250      0.65735      .   S
    N16    O250      2.52644      .   S
    Zr248  O251      0.66099      .   S
    N34    O251      2.51834  1_455   S
    Zr248  O252      0.66205      .   S
    N23    O252      2.50339      .   S
    Zr253  O254      0.66173      .   S
    N0     O254      2.51551      .   S
    Zr253  O255      0.65492      .   S
    N16    O255      2.56384      .   S
    Zr253  O256      0.66064      .   S
    N8     O256      2.52585  1_455   S
    Zr253  O257      0.65759      .   S
    N12    O257      2.52598      .   S
    Zr258  O259      0.65501      .   S
    N3     O259      2.56384      .   S
    Zr258  O260      0.65765      .   S
    N30    O260      2.52592      .   S
    Zr258  O261      0.66173      .   S
    N26    O261      2.50546      .   S
    Zr258  O262      0.66074      .   S
    N13    O262      2.52585      .   S
    Zr263  O264      0.65963      .   S
    N30    O264      2.51072  1_545   S
    Zr263  O265      0.65516      .   S
    N7     O265      2.52296      .   S
    Zr263  O266      0.65444      .   S
    N0     O266      2.53824      .   S
    Zr263  O267      0.65756      .   S
    N26    O267      2.55129  1_545   S
    Zr268  O269      0.65437      .   S
    N27    O269      2.53942      .   S
    Zr268  O270      0.65474      .   S
    N33    O270      2.52440      .   S
    Zr268  O271      0.66026      .   S
    N38    O271      2.50749  1_556   S
    Zr268  O272      0.65744      .   S
    N47    O272      2.55112  1_546   S
    Zr273  O274      0.66061      .   S
    N22    O274      2.52575  1_554   S
    Zr273  O275      0.66175      .   S
    N2     O275      2.50555  1_554   S
    Zr273  O276      0.65499      .   S
    N14    O276      2.56370      .   S
    Zr273  O277      0.65760      .   S
    N20    O277      2.52621      .   S
    Zr278  O279      0.65759      .   S
    N41    O279      2.52598      .   S
    Zr278  O280      0.66074      .   S
    N7     O280      2.52598      .   S
    Zr278  O281      0.65492      .   S
    N17    O281      2.56384      .   S
    Zr278  O282      0.66173      .   S
    N1     O282      2.50557      .   S
    Zr283  O284      0.66062      .   S
    N6     O284      2.52547  1_454   S
    Zr283  O285      0.66175      .   S
    N15    O285      2.50555  1_554   S
    Zr283  O286      0.65760      .   S
    N42    O286      2.52621      .   S
    Zr283  O287      0.65499      .   S
    N38    O287      2.56370      .   S
