# CIF file generated by openbabel 2.4.90, see http://openbabel.sf.net
data_I
_chemical_name_common ''
_cell_length_a 19.006
_cell_length_b 18.833
_cell_length_c 18.822
_cell_angle_alpha 89.995
_cell_angle_beta 90.001
_cell_angle_gamma 89.998
_space_group_name_H-M_alt 'P 1'
_space_group_name_Hall 'P 1'
loop_
    _symmetry_equiv_pos_as_xyz
    x,y,z
loop_
    _atom_site_label
    _atom_site_type_symbol
    _atom_site_fract_x
    _atom_site_fract_y
    _atom_site_fract_z
    _atom_site_occupancy
    Zr0     Zr   0.45805   0.93567   0.33463   1.000
    Zr1     Zr   0.95806   0.93567   0.33463   1.000
    Zr2     Zr   0.42170   0.83501   0.54457   1.000
    Zr3     Zr   0.92171   0.83501   0.54457   1.000
    Zr4     Zr   0.33284   0.05107   0.56610   1.000
    Zr5     Zr   0.83284   0.05107   0.56610   1.000
    Zr6     Zr   0.45806   0.56440   0.16533   1.000
    Zr7     Zr   0.95806   0.56440   0.16533   1.000
    Zr8     Zr   0.42172   0.66501   0.95539   1.000
    Zr9     Zr   0.92173   0.66501   0.95539   1.000
    Zr10    Zr   0.33283   0.44894   0.93380   1.000
    Zr11    Zr   0.83283   0.44894   0.93380   1.000
    Zr12    Zr   0.45820   0.16550   0.93420   1.000
    Zr13    Zr   0.95821   0.16550   0.93420   1.000
    Zr14    Zr   0.42179   0.95528   0.83528   1.000
    Zr15    Zr   0.92180   0.95528   0.83528   1.000
    Zr16    Zr   0.33265   0.93398   0.05093   1.000
    Zr17    Zr   0.83266   0.93398   0.05093   1.000
    Zr18    Zr   0.45820   0.33449   0.56574   1.000
    Zr19    Zr   0.95821   0.33449   0.56574   1.000
    Zr20    Zr   0.42180   0.54475   0.66468   1.000
    Zr21    Zr   0.92181   0.54475   0.66468   1.000
    Zr22    Zr   0.33266   0.56603   0.44902   1.000
    Zr23    Zr   0.83266   0.56603   0.44902   1.000
    Zr24    Zr   0.04196   0.06434   0.66535   1.000
    Zr25    Zr   0.54197   0.06434   0.66535   1.000
    Zr26    Zr   0.07831   0.16500   0.45542   1.000
    Zr27    Zr   0.57832   0.16500   0.45542   1.000
    Zr28    Zr   0.16717   0.94894   0.43389   1.000
    Zr29    Zr   0.66718   0.94894   0.43389   1.000
    Zr30    Zr   0.04195   0.43561   0.83466   1.000
    Zr31    Zr   0.54196   0.43561   0.83466   1.000
    Zr32    Zr   0.07829   0.33500   0.04460   1.000
    Zr33    Zr   0.57830   0.33500   0.04460   1.000
    Zr34    Zr   0.16718   0.55107   0.06610   1.000
    Zr35    Zr   0.66719   0.55107   0.06610   1.000
    Zr36    Zr   0.04181   0.83451   0.06573   1.000
    Zr37    Zr   0.54182   0.83451   0.06573   1.000
    Zr38    Zr   0.07822   0.04473   0.16470   1.000
    Zr39    Zr   0.57823   0.04473   0.16470   1.000
    Zr40    Zr   0.16736   0.06603   0.94905   1.000
    Zr41    Zr   0.66737   0.06603   0.94905   1.000
    Zr42    Zr   0.04181   0.66552   0.43425   1.000
    Zr43    Zr   0.54182   0.66552   0.43425   1.000
    Zr44    Zr   0.07821   0.45526   0.33530   1.000
    Zr45    Zr   0.57822   0.45526   0.33530   1.000
    Zr46    Zr   0.16735   0.43398   0.55096   1.000
    Zr47    Zr   0.66736   0.43398   0.55096   1.000
    N48     N    0.83291   0.93310   0.44400   1.000
    O49     O    0.84205   0.01386   0.50770   1.000
    O50     O    0.73336   0.93142   0.42598   1.000
    O51     O    0.89683   0.93779   0.36603   1.000
    O52     O    0.87118   0.85909   0.50261   1.000
    N53     N    0.33290   0.93310   0.44489   1.000
    O54     O    0.34204   0.01386   0.50770   1.000
    O55     O    0.37117   0.85909   0.50261   1.000
    O56     O    0.39682   0.93779   0.36566   1.000
    O57     O    0.23335   0.93142   0.42598   1.000
    N58     N    0.33292   0.56696   0.05509   1.000
    O59     O    0.23336   0.56861   0.07398   1.000
    O60     O    0.34206   0.48620   0.99222   1.000
    O61     O    0.39681   0.56223   0.13396   1.000
    O62     O    0.37122   0.64098   0.99740   1.000
    N63     N    0.57869   0.33495   0.45186   1.000
    O64     O    0.57972   0.39400   0.36875   1.000
    O65     O    0.58685   0.23281   0.44252   1.000
    O66     O    0.64611   0.37923   0.51289   1.000
    O67     O    0.49451   0.34538   0.50693   1.000
    N68     N    0.04569   0.06578   0.83530   1.000
    O69     O    0.99432   0.14070   0.87990   1.000
    O70     O    0.05409   0.07191   0.73300   1.000
    O71     O    0.98253   0.98726   0.84747   1.000
    O72     O    0.13020   0.06068   0.89071   1.000
    N73     N    0.95430   0.16479   0.56664   1.000
    O74     O    0.01753   0.15403   0.48768   1.000
    O75     O    0.00556   0.11844   0.64081   1.000
    O76     O    0.94605   0.26692   0.57442   1.000
    O77     O    0.86983   0.10953   0.56065   1.000
    N78     N    0.04573   0.66482   0.06659   1.000
    O79     O    0.13019   0.60953   0.06064   1.000
    O80     O    0.99444   0.61850   0.14074   1.000
    O81     O    0.98254   0.65408   0.98759   1.000
    O82     O    0.05400   0.76694   0.07440   1.000
    N83     N    0.54573   0.83522   0.43334   1.000
    O84     O    0.55398   0.73309   0.42557   1.000
    O85     O    0.49446   0.88156   0.35918   1.000
    O86     O    0.63020   0.89047   0.43930   1.000
    O87     O    0.48249   0.84598   0.51231   1.000
    N88     N    0.04572   0.83522   0.43334   1.000
    O89     O    0.98249   0.84598   0.51231   1.000
    O90     O    0.05397   0.73309   0.42557   1.000
    O91     O    0.99446   0.88156   0.35918   1.000
    O92     O    0.13019   0.89047   0.43930   1.000
    N93     N    0.95434   0.56581   0.33533   1.000
    O94     O    0.94596   0.57195   0.23298   1.000
    O95     O    0.01749   0.48727   0.34747   1.000
    O96     O    0.00570   0.64073   0.37990   1.000
    O97     O    0.86981   0.56070   0.39067   1.000
    N98     N    0.16709   0.43305   0.94490   1.000
    O99     O    0.12879   0.35903   0.00258   1.000
    O100    O    0.26665   0.43140   0.92598   1.000
    O101    O    0.10320   0.43778   0.86603   1.000
    O102    O    0.15795   0.51381   0.00774   1.000
    N103    N    0.07866   0.45146   0.16497   1.000
    O104    O    0.14589   0.51291   0.12081   1.000
    O105    O    0.99427   0.50568   0.15412   1.000
    O106    O    0.07997   0.36839   0.10594   1.000
    O107    O    0.08661   0.44251   0.26735   1.000
    N108    N    0.92137   0.95143   0.66497   1.000
    O109    O    0.85416   0.01277   0.62079   1.000
    O110    O    0.91340   0.94250   0.76734   1.000
    O111    O    0.00578   0.00562   0.65414   1.000
    O112    O    0.92004   0.86838   0.60593   1.000
    N113    N    0.45429   0.16479   0.56664   1.000
    O114    O    0.36982   0.10953   0.56065   1.000
    O115    O    0.51753   0.15403   0.48768   1.000
    O116    O    0.50555   0.11844   0.64081   1.000
    O117    O    0.44604   0.26692   0.57442   1.000
    N118    N    0.42132   0.83496   0.95185   1.000
    O119    O    0.50551   0.84539   0.00692   1.000
    O120    O    0.35390   0.87922   0.01273   1.000
    O121    O    0.42029   0.89402   0.86874   1.000
    O122    O    0.41318   0.73282   0.94249   1.000
    N123    N    0.83293   0.56696   0.05509   1.000
    O124    O    0.73337   0.56861   0.07398   1.000
    O125    O    0.84207   0.48620   0.99222   1.000
    O126    O    0.87123   0.64098   0.99740   1.000
    O127    O    0.89682   0.56223   0.13396   1.000
    N128    N    0.92133   0.66506   0.54812   1.000
    O129    O    0.92031   0.60601   0.63123   1.000
    O130    O    0.00551   0.65463   0.49306   1.000
    O131    O    0.91318   0.76720   0.55742   1.000
    O132    O    0.85391   0.62077   0.48707   1.000
    N133    N    0.42133   0.66506   0.54812   1.000
    O134    O    0.41317   0.76720   0.55742   1.000
    O135    O    0.35391   0.62077   0.48707   1.000
    O136    O    0.50551   0.65463   0.49306   1.000
    O137    O    0.42030   0.60601   0.63123   1.000
    N138    N    0.45433   0.93422   0.16463   1.000
    O139    O    0.50570   0.85931   0.12008   1.000
    O140    O    0.36981   0.93933   0.10927   1.000
    O141    O    0.44592   0.92810   0.26696   1.000
    O142    O    0.51749   0.01275   0.15251   1.000
    N143    N    0.95429   0.33519   0.93340   1.000
    O144    O    0.86983   0.39048   0.93927   1.000
    O145    O    0.00558   0.38151   0.85924   1.000
    O146    O    0.01748   0.34593   0.01239   1.000
    O147    O    0.94602   0.23307   0.92557   1.000
    N148    N    0.42135   0.54855   0.83501   1.000
    O149    O    0.35412   0.48710   0.87916   1.000
    O150    O    0.42004   0.63162   0.89405   1.000
    O151    O    0.41340   0.55750   0.73264   1.000
    O152    O    0.50574   0.49433   0.84587   1.000
    N153    N    0.33302   0.05514   0.93292   1.000
    O154    O    0.39700   0.13398   0.93729   1.000
    O155    O    0.23348   0.07404   0.93138   1.000
    O156    O    0.37118   0.99734   0.85899   1.000
    O157    O    0.34201   0.99231   0.01371   1.000
    N158    N    0.54574   0.66482   0.06659   1.000
    O159    O    0.48255   0.65408   0.98757   1.000
    O160    O    0.55400   0.76694   0.07440   1.000
    O161    O    0.49444   0.61850   0.14071   1.000
    O162    O    0.63020   0.60953   0.06064   1.000
    N163    N    0.83303   0.44487   0.56701   1.000
    O164    O    0.87118   0.50273   0.64084   1.000
    O165    O    0.89702   0.36602   0.56269   1.000
    O166    O    0.84202   0.50765   0.48613   1.000
    O167    O    0.73350   0.42596   0.56859   1.000
    N168    N    0.16699   0.94487   0.06707   1.000
    O169    O    0.26653   0.92597   0.06860   1.000
    O170    O    0.10301   0.86603   0.06268   1.000
    O171    O    0.15800   0.00770   0.98628   1.000
    O172    O    0.12883   0.00267   0.14099   1.000
    N173    N    0.45433   0.56581   0.33533   1.000
    O174    O    0.50569   0.64073   0.37990   1.000
    O175    O    0.51749   0.48727   0.34747   1.000
    O176    O    0.36980   0.56070   0.39067   1.000
    O177    O    0.44595   0.57195   0.23298   1.000
    N178    N    0.66712   0.06691   0.55509   1.000
    O179    O    0.76666   0.06859   0.57401   1.000
    O180    O    0.62885   0.14092   0.49737   1.000
    O181    O    0.65797   0.98615   0.49228   1.000
    O182    O    0.60320   0.06222   0.63396   1.000
    N183    N    0.66700   0.94487   0.06707   1.000
    O184    O    0.76654   0.92597   0.06860   1.000
    O185    O    0.65801   0.00770   0.98628   1.000
    O186    O    0.60302   0.86603   0.06268   1.000
    O187    O    0.62884   0.00267   0.14099   1.000
    N188    N    0.33302   0.44487   0.56701   1.000
    O189    O    0.39701   0.36602   0.56269   1.000
    O190    O    0.23349   0.42596   0.56859   1.000
    O191    O    0.34201   0.50765   0.48613   1.000
    O192    O    0.37118   0.50273   0.64084   1.000
    N193    N    0.07865   0.04858   0.33502   1.000
    O194    O    0.08662   0.05751   0.23265   1.000
    O195    O    0.99424   0.99439   0.34584   1.000
    O196    O    0.07998   0.13163   0.39405   1.000
    O197    O    0.14586   0.98711   0.37919   1.000
    N198    N    0.57865   0.04858   0.33502   1.000
    O199    O    0.64587   0.98711   0.37919   1.000
    O200    O    0.57998   0.13163   0.39405   1.000
    O201    O    0.58662   0.05751   0.23265   1.000
    O202    O    0.49424   0.99439   0.34584   1.000
    N203    N    0.07869   0.16505   0.04814   1.000
    O204    O    0.14611   0.12079   0.98707   1.000
    O205    O    0.08683   0.26719   0.05750   1.000
    O206    O    0.07973   0.10599   0.13117   1.000
    O207    O    0.99451   0.15462   0.99305   1.000
    N208    N    0.54569   0.43419   0.66465   1.000
    O209    O    0.49433   0.35928   0.62008   1.000
    O210    O    0.48253   0.51274   0.65252   1.000
    O211    O    0.55407   0.42806   0.76701   1.000
    O212    O    0.63021   0.43931   0.60932   1.000
    N213    N    0.95433   0.93422   0.16463   1.000
    O214    O    0.86982   0.93933   0.10927   1.000
    O215    O    0.01749   0.01275   0.15251   1.000
    O216    O    0.00570   0.85931   0.12008   1.000
    O217    O    0.94593   0.92810   0.26696   1.000
    N218    N    0.04568   0.43419   0.66465   1.000
    O219    O    0.13021   0.43931   0.60932   1.000
    O220    O    0.98253   0.51274   0.65252   1.000
    O221    O    0.99432   0.35928   0.62008   1.000
    O222    O    0.05406   0.42806   0.76701   1.000
    N223    N    0.45428   0.33519   0.93340   1.000
    O224    O    0.50558   0.38151   0.85924   1.000
    O225    O    0.36982   0.39048   0.93932   1.000
    O226    O    0.44601   0.23307   0.92557   1.000
    O227    O    0.51747   0.34593   0.01239   1.000
    N228    N    0.57870   0.16505   0.04814   1.000
    O229    O    0.58684   0.26719   0.05750   1.000
    O230    O    0.64612   0.12079   0.98707   1.000
    O231    O    0.57973   0.10599   0.13117   1.000
    O232    O    0.49451   0.15462   0.99305   1.000
    N233    N    0.07868   0.33495   0.45186   1.000
    O234    O    0.08684   0.23281   0.44252   1.000
    O235    O    0.99451   0.34538   0.50693   1.000
    O236    O    0.07971   0.39400   0.36875   1.000
    O237    O    0.14610   0.37923   0.51289   1.000
    N238    N    0.92133   0.83496   0.95185   1.000
    O239    O    0.91319   0.73282   0.94249   1.000
    O240    O    0.00551   0.84539   0.00692   1.000
    O241    O    0.85391   0.87922   0.01273   1.000
    O242    O    0.92029   0.89402   0.86874   1.000
    N243    N    0.57867   0.45146   0.16497   1.000
    O244    O    0.49428   0.50568   0.15412   1.000
    O245    O    0.64590   0.51291   0.12081   1.000
    O246    O    0.58662   0.44251   0.26735   1.000
    O247    O    0.57998   0.36839   0.10594   1.000
    N248    N    0.16699   0.55514   0.43290   1.000
    O249    O    0.10300   0.63399   0.43729   1.000
    O250    O    0.26652   0.57405   0.43139   1.000
    O251    O    0.15800   0.49236   0.51380   1.000
    O252    O    0.12883   0.49727   0.35907   1.000
    N253    N    0.42137   0.95143   0.66497   1.000
    O254    O    0.41339   0.94250   0.76734   1.000
    O255    O    0.35415   0.01277   0.62079   1.000
    O256    O    0.42003   0.86838   0.60593   1.000
    O257    O    0.50577   0.00562   0.65414   1.000
    N258    N    0.92136   0.54855   0.83501   1.000
    O259    O    0.85413   0.48710   0.87916   1.000
    O260    O    0.92004   0.63162   0.89405   1.000
    O261    O    0.91341   0.55750   0.73264   1.000
    O262    O    0.00574   0.49433   0.84587   1.000
    N263    N    0.66710   0.43305   0.94490   1.000
    O264    O    0.76666   0.43140   0.92598   1.000
    O265    O    0.65796   0.51381   0.00774   1.000
    O266    O    0.60320   0.43778   0.86603   1.000
    O267    O    0.62880   0.35903   0.00258   1.000
    N268    N    0.54569   0.06578   0.83530   1.000
    O269    O    0.55409   0.07191   0.73300   1.000
    O270    O    0.63021   0.06068   0.89071   1.000
    O271    O    0.48253   0.98726   0.84747   1.000
    O272    O    0.49432   0.14070   0.87990   1.000
    N273    N    0.16711   0.06691   0.55509   1.000
    O274    O    0.15797   0.98615   0.49228   1.000
    O275    O    0.12884   0.14092   0.49733   1.000
    O276    O    0.10319   0.06222   0.63396   1.000
    O277    O    0.26666   0.06859   0.57401   1.000
    N278    N    0.66700   0.55514   0.43290   1.000
    O279    O    0.62884   0.49727   0.35907   1.000
    O280    O    0.60301   0.63399   0.43729   1.000
    O281    O    0.65801   0.49236   0.51380   1.000
    O282    O    0.76653   0.57405   0.43139   1.000
    N283    N    0.83303   0.05514   0.93292   1.000
    O284    O    0.84202   0.99231   0.01371   1.000
    O285    O    0.89701   0.13398   0.93729   1.000
    O286    O    0.73349   0.07404   0.93138   1.000
    O287    O    0.87119   0.99734   0.85899   1.000
loop_
    _geom_bond_atom_site_label_1
    _geom_bond_atom_site_label_2
    _geom_bond_distance
    _geom_bond_site_symmetry_2
    _ccdc_geom_bond_type
    N48    O49       1.94469  1_565   S
    Zr5    O49       1.31523      .   S
    N48    O50       1.92238      .   S
    Zr29   O50       1.30887      .   S
    N48    O51       1.90719      .   S
    Zr1    O51       1.30581      .   S
    N48    O52       1.92051      .   S
    Zr3    O52       1.32346      .   S
    N53    O54       1.93441  1_565   S
    Zr4    O54       1.31523      .   S
    N53    O55       1.91094      .   S
    Zr2    O55       1.32346      .   S
    N53    O56       1.92557      .   S
    Zr0    O56       1.30263      .   S
    N53    O57       1.92541      .   S
    Zr28   O57       1.30887      .   S
    N58    O59       1.92553      .   S
    Zr34   O59       1.30890      .   S
    N58    O60       1.93498  1_554   S
    Zr10   O60       1.31620      .   S
    N58    O61       1.91995      .   S
    Zr6    O61       1.30583      .   S
    N58    O62       1.91091  1_554   S
    Zr8    O62       1.32351      .   S
    N63    O64       1.91929      .   S
    Zr45   O64       1.31468      .   S
    N63    O65       1.93789      .   S
    Zr27   O65       1.31003      .   S
    N63    O66       1.91241      .   S
    Zr47   O66       1.31896      .   S
    N63    O67       1.91652      .   S
    Zr18   O67       1.32040      .   S
    N68    O69       1.91018  1_455   S
    Zr13   O69       1.31671      .   S
    N68    O70       1.93553      .   S
    Zr24   O70       1.30182      .   S
    N68    O71       1.91838  1_445   S
    Zr15   O71       1.32199      .   S
    N68    O72       1.91763      .   S
    Zr40   O72       1.30936      .   S
    N73    O74       1.92196  1_655   S
    Zr26   O74       1.32128      .   S
    N73    O75       1.91299  1_655   S
    Zr24   O75       1.31535      .   S
    N73    O76       1.93524      .   S
    Zr19   O76       1.30372      .   S
    N73    O77       1.91655      .   S
    Zr5    O77       1.31039      .   S
    N78    O79       1.91666      .   S
    Zr34   O79       1.31037      .   S
    N78    O80       1.91302  1_455   S
    Zr7    O80       1.31534      .   S
    N78    O81       1.92196  1_454   S
    Zr9    O81       1.32124      .   S
    N78    O82       1.93513      .   S
    Zr36   O82       1.30372      .   S
    N83    O84       1.93523      .   S
    Zr43   O84       1.30374      .   S
    N83    O85       1.91292      .   S
    Zr0    O85       1.31551      .   S
    N83    O86       1.91651      .   S
    Zr29   O86       1.31032      .   S
    N83    O87       1.92216      .   S
    Zr2    O87       1.32148      .   S
    N88    O89       1.92211  1_455   S
    Zr3    O89       1.32128      .   S
    N88    O90       1.93524      .   S
    Zr42   O90       1.30372      .   S
    N88    O91       1.91288  1_455   S
    Zr1    O91       1.31539      .   S
    N88    O92       1.91651      .   S
    Zr28   O92       1.31032      .   S
    N93    O94       1.93644      .   S
    Zr7    O94       1.30175      .   S
    N93    O95       1.91851  1_655   S
    Zr44   O95       1.32199      .   S
    N93    O96       1.90984  1_655   S
    Zr42   O96       1.31737      .   S
    N93    O97       1.91706      .   S
    Zr23   O97       1.30947      .   S
    N98    O99       1.91084  1_556   S
    Zr32   O99       1.32359      .   S
    N98    O100      1.92561      .   S
    Zr10   O100      1.30875      .   S
    N98    O101      1.92007      .   S
    Zr30   O101      1.30576      .   S
    N98    O102      1.93462  1_556   S
    Zr34   O102      1.31526      .   S
    N103   O104      1.91380      .   S
    Zr34   O104      1.31937      .   S
    N103   O105      1.91229  1_455   S
    Zr7    O105      1.31942      .   S
    N103   O106      1.91901      .   S
    Zr32   O106      1.31521      .   S
    N103   O107      1.94023      .   S
    Zr44   O107      1.31109      .   S
    N108   O109      1.91247  1_565   S
    Zr5    O109      1.32054      .   S
    N108   O110      1.94000      .   S
    Zr15   O110      1.31103      .   S
    N108   O111      1.91218  1_665   S
    Zr24   O111      1.31940      .   S
    N108   O112      1.91898      .   S
    Zr3    O112      1.31518      .   S
    N113   O114      1.91656      .   S
    Zr4    O114      1.31038      .   S
    N113   O115      1.92201      .   S
    Zr27   O115      1.32148      .   S
    N113   O116      1.91303      .   S
    Zr25   O116      1.31546      .   S
    N113   O117      1.93524      .   S
    Zr18   O117      1.30372      .   S
    N118   O119      1.91651  1_556   S
    Zr37   O119      1.32038      .   S
    N118   O120      1.91058  1_556   S
    Zr16   O120      1.32052      .   S
    N118   O121      1.91941      .   S
    Zr14   O121      1.31471      .   S
    N118   O122      1.93780      .   S
    Zr8    O122      1.30997      .   S
    N123   O124      1.92553      .   S
    Zr35   O124      1.30891      .   S
    N123   O125      1.93498  1_554   S
    Zr11   O125      1.31620      .   S
    N123   O126      1.91091  1_554   S
    Zr9    O126      1.32351      .   S
    N123   O127      1.91995      .   S
    Zr7    O127      1.30583      .   S
    N128   O129      1.91928      .   S
    Zr21   O129      1.31469      .   S
    N128   O130      1.91635  1_655   S
    Zr42   O130      1.32027      .   S
    N128   O131      1.93782      .   S
    Zr3    O131      1.30984      .   S
    N128   O132      1.91267      .   S
    Zr23   O132      1.31873      .   S
    N133   O134      1.93782      .   S
    Zr2    O134      1.30984      .   S
    N133   O135      1.91267      .   S
    Zr22   O135      1.31873      .   S
    N133   O136      1.91641      .   S
    Zr43   O136      1.32039      .   S
    N133   O137      1.91928      .   S
    Zr20   O137      1.31469      .   S
    N138   O139      1.90984      .   S
    Zr37   O139      1.31749      .   S
    N138   O140      1.91705      .   S
    Zr16   O140      1.30948      .   S
    N138   O141      1.93605      .   S
    Zr0    O141      1.30224      .   S
    N138   O142      1.91833  1_565   S
    Zr39   O142      1.32219      .   S
    N143   O144      1.91657      .   S
    Zr11   O144      1.31040      .   S
    N143   O145      1.91312  1_655   S
    Zr30   O145      1.31529      .   S
    N143   O146      1.92186  1_656   S
    Zr32   O146      1.32129      .   S
    N143   O147      1.93515      .   S
    Zr13   O147      1.30362      .   S
    N148   O149      1.91370      .   S
    Zr10   O149      1.31838      .   S
    N148   O150      1.91912      .   S
    Zr8    O150      1.31521      .   S
    N148   O151      1.94008      .   S
    Zr20   O151      1.31123      .   S
    N148   O152      1.91239      .   S
    Zr31   O152      1.31954      .   S
    N153   O154      1.92106      .   S
    Zr12   O154      1.30710      .   S
    N153   O155      1.92516      .   S
    Zr40   O155      1.30872      .   S
    N153   O156      1.90984  1_545   S
    Zr14   O156      1.32363      .   S
    N153   O157      1.93428  1_546   S
    Zr16   O157      1.31488      .   S
    N158   O159      1.92235  1_554   S
    Zr8    O159      1.32123      .   S
    N158   O160      1.93513      .   S
    Zr37   O160      1.30372      .   S
    N158   O161      1.91254      .   S
    Zr6    O161      1.31570      .   S
    N158   O162      1.91666      .   S
    Zr35   O162      1.31036      .   S
    N163   O164      1.90919      .   S
    Zr21   O164      1.32409      .   S
    N163   O165      1.92117      .   S
    Zr19   O165      1.30707      .   S
    N163   O166      1.93500      .   S
    Zr23   O166      1.31457      .   S
    N163   O167      1.92517      .   S
    Zr47   O167      1.30875      .   S
    N168   O169      1.92517      .   S
    Zr16   O169      1.30874      .   S
    N168   O170      1.92107      .   S
    Zr36   O170      1.30709      .   S
    N168   O171      1.93431  1_564   S
    Zr40   O171      1.31497      .   S
    N168   O172      1.90979  1_565   S
    Zr38   O172      1.32358      .   S
    N173   O174      1.90988      .   S
    Zr43   O174      1.31749      .   S
    N173   O175      1.91856      .   S
    Zr45   O175      1.32219      .   S
    N173   O176      1.91706      .   S
    Zr22   O176      1.30947      .   S
    N173   O177      1.93644      .   S
    Zr6    O177      1.30175      .   S
    N178   O179      1.92545      .   S
    Zr5    O179      1.30889      .   S
    N178   O180      1.91084      .   S
    Zr27   O180      1.32345      .   S
    N178   O181      1.93437  1_545   S
    Zr29   O181      1.31512      .   S
    N178   O182      1.92021      .   S
    Zr25   O182      1.30575      .   S
    N183   O184      1.92517      .   S
    Zr17   O184      1.30874      .   S
    N183   O185      1.93431  1_564   S
    Zr41   O185      1.31497      .   S
    N183   O186      1.92107      .   S
    Zr37   O186      1.30709      .   S
    N183   O187      1.90979  1_565   S
    Zr39   O187      1.32358      .   S
    N188   O189      1.92117      .   S
    Zr18   O189      1.30707      .   S
    N188   O190      1.92517      .   S
    Zr46   O190      1.30875      .   S
    N188   O191      1.93500      .   S
    Zr22   O191      1.31457      .   S
    N188   O192      1.90919      .   S
    Zr20   O192      1.32409      .   S
    N193   O194      1.94005      .   S
    Zr38   O194      1.31117      .   S
    N193   O195      1.91216  1_445   S
    Zr1    O195      1.31940      .   S
    N193   O196      1.91888      .   S
    Zr26   O196      1.31530      .   S
    N193   O197      1.91397  1_545   S
    Zr28   O197      1.31926      .   S
    N198   O199      1.91397  1_545   S
    Zr29   O199      1.31926      .   S
    N198   O200      1.91888      .   S
    Zr27   O200      1.31530      .   S
    N198   O201      1.94005      .   S
    Zr39   O201      1.31117      .   S
    N198   O202      1.91222  1_545   S
    Zr0    O202      1.31952      .   S
    N203   O204      1.91265  1_554   S
    Zr40   O204      1.31874      .   S
    N203   O205      1.93782      .   S
    Zr32   O205      1.30997      .   S
    N203   O206      1.91833      .   S
    Zr38   O206      1.31524      .   S
    N203   O207      1.91660  1_454   S
    Zr13   O207      1.32097      .   S
    N208   O209      1.90985      .   S
    Zr18   O209      1.31738      .   S
    N208   O210      1.91853      .   S
    Zr20   O210      1.32218      .   S
    N208   O211      1.93663      .   S
    Zr31   O211      1.30175      .   S
    N208   O212      1.91698      .   S
    Zr47   O212      1.30959      .   S
    N213   O214      1.91705      .   S
    Zr17   O214      1.30948      .   S
    N213   O215      1.91828  1_665   S
    Zr38   O215      1.32199      .   S
    N213   O216      1.90980  1_655   S
    Zr36   O216      1.31737      .   S
    N213   O217      1.93605      .   S
    Zr1    O217      1.30224      .   S
    N218   O219      1.91698      .   S
    Zr46   O219      1.30959      .   S
    N218   O220      1.91849  1_455   S
    Zr21   O220      1.32198      .   S
    N218   O221      1.90981  1_455   S
    Zr19   O221      1.31727      .   S
    N218   O222      1.93663      .   S
    Zr30   O222      1.30175      .   S
    N223   O224      1.91316      .   S
    Zr31   O224      1.31540      .   S
    N223   O225      1.91661      .   S
    Zr10   O225      1.31045      .   S
    N223   O226      1.93515      .   S
    Zr12   O226      1.30362      .   S
    N223   O227      1.92191  1_556   S
    Zr33   O227      1.32149      .   S
    N228   O229      1.93782      .   S
    Zr33   O229      1.30997      .   S
    N228   O230      1.91265  1_554   S
    Zr41   O230      1.31874      .   S
    N228   O231      1.91833      .   S
    Zr39   O231      1.31524      .   S
    N228   O232      1.91666  1_554   S
    Zr12   O232      1.32109      .   S
    N233   O234      1.93789      .   S
    Zr26   O234      1.31003      .   S
    N233   O235      1.91645  1_455   S
    Zr19   O235      1.32028      .   S
    N233   O236      1.91929      .   S
    Zr44   O236      1.31468      .   S
    N233   O237      1.91241      .   S
    Zr46   O237      1.31896      .   S
    N238   O239      1.93780      .   S
    Zr9    O239      1.30997      .   S
    N238   O240      1.91644  1_656   S
    Zr36   O240      1.32026      .   S
    N238   O241      1.91058  1_556   S
    Zr17   O241      1.32052      .   S
    N238   O242      1.91941      .   S
    Zr15   O242      1.31471      .   S
    N243   O244      1.91236      .   S
    Zr6    O244      1.31955      .   S
    N243   O245      1.91380      .   S
    Zr35   O245      1.31937      .   S
    N243   O246      1.94023      .   S
    Zr45   O246      1.31109      .   S
    N243   O247      1.91901      .   S
    Zr33   O247      1.31521      .   S
    N248   O249      1.92123      .   S
    Zr42   O249      1.30707      .   S
    N248   O250      1.92517      .   S
    Zr22   O250      1.30870      .   S
    N248   O251      1.93526      .   S
    Zr46   O251      1.31509      .   S
    N248   O252      1.90905      .   S
    Zr44   O252      1.32372      .   S
    N253   O254      1.94000      .   S
    Zr14   O254      1.31103      .   S
    N253   O255      1.91247  1_565   S
    Zr4    O255      1.32054      .   S
    N253   O256      1.91898      .   S
    Zr2    O256      1.31518      .   S
    N253   O257      1.91224  1_565   S
    Zr25   O257      1.31951      .   S
    N258   O259      1.91369      .   S
    Zr11   O259      1.31837      .   S
    N258   O260      1.91912      .   S
    Zr9    O260      1.31521      .   S
    N258   O261      1.94008      .   S
    Zr21   O261      1.31123      .   S
    N258   O262      1.91231  1_655   S
    Zr30   O262      1.31942      .   S
    N263   O264      1.92561      .   S
    Zr11   O264      1.30876      .   S
    N263   O265      1.93463  1_556   S
    Zr35   O265      1.31525      .   S
    N263   O266      1.92007      .   S
    Zr31   O266      1.30576      .   S
    N263   O267      1.91084  1_556   S
    Zr33   O267      1.32359      .   S
    N268   O269      1.93553      .   S
    Zr25   O269      1.30182      .   S
    N268   O270      1.91763      .   S
    Zr41   O270      1.30936      .   S
    N268   O271      1.91843  1_545   S
    Zr14   O271      1.32219      .   S
    N268   O272      1.91022      .   S
    Zr12   O272      1.31683      .   S
    N273   O274      1.93438  1_545   S
    Zr28   O274      1.31511      .   S
    N273   O275      1.91131      .   S
    Zr26   O275      1.32295      .   S
    N273   O276      1.92021      .   S
    Zr24   O276      1.30574      .   S
    N273   O277      1.92545      .   S
    Zr4    O277      1.30889      .   S
    N278   O279      1.90905      .   S
    Zr45   O279      1.32372      .   S
    N278   O280      1.92123      .   S
    Zr43   O280      1.30707      .   S
    N278   O281      1.93525      .   S
    Zr47   O281      1.31510      .   S
    N278   O282      1.92517      .   S
    Zr23   O282      1.30870      .   S
    N283   O284      1.93428  1_546   S
    Zr17   O284      1.31488      .   S
    N283   O285      1.92106      .   S
    Zr13   O285      1.30710      .   S
    N283   O286      1.92516      .   S
    Zr41   O286      1.30872      .   S
    N283   O287      1.90984  1_545   S
    Zr15   O287      1.32363      .   S
