# CIF file generated by openbabel 2.4.90, see http://openbabel.sf.net
data_I
_chemical_name_common ''
_cell_length_a 13.748
_cell_length_b 14.897
_cell_length_c 14.679
_cell_angle_alpha 107.387
_cell_angle_beta 112.496
_cell_angle_gamma 99.975
_space_group_name_H-M_alt 'P 1'
_space_group_name_Hall 'P 1'
loop_
    _symmetry_equiv_pos_as_xyz
    x,y,z
loop_
    _atom_site_label
    _atom_site_type_symbol
    _atom_site_fract_x
    _atom_site_fract_y
    _atom_site_fract_z
    _atom_site_occupancy
    Si0     Si   0.77386   0.65118   0.12789   1.000
    Si1     Si   0.22714   0.34858   0.87212   1.000
    H2      H    0.12506   0.74541   0.46608   1.000
    H3      H    0.92044   0.68780   0.35338   1.000
    H4      H    0.96944   0.73567   0.09563   1.000
    H5      H    0.17285   0.80034   0.21223   1.000
    H6      H    0.53808   0.63893   0.75900   1.000
    H7      H    0.60149   0.56437   0.89285   1.000
    H8      H    0.85311   0.84746   0.12386   1.000
    H9      H    0.78830   0.92019   0.98959   1.000
    H10     H    0.52550   0.29085   0.94550   1.000
    H11     H    0.56729   0.47194   0.04029   1.000
    H12     H    0.90254   0.52461   0.07874   1.000
    H13     H    0.85854   0.34341   0.98239   1.000
    H14     H    0.60388   0.63789   0.37840   1.000
    H15     H    0.67391   0.56369   0.25071   1.000
    H16     H    0.72241   0.83393   0.19648   1.000
    H17     H    0.65712   0.90699   0.32634   1.000
    H18     H    0.87600   0.25481   0.53403   1.000
    H19     H    0.08061   0.31228   0.64672   1.000
    H20     H    0.03149   0.26409   0.90429   1.000
    H21     H    0.82808   0.19954   0.78767   1.000
    H22     H    0.46267   0.36068   0.24069   1.000
    H23     H    0.39937   0.43531   0.10718   1.000
    H24     H    0.14770   0.15228   0.87605   1.000
    H25     H    0.21236   0.07950   0.01030   1.000
    H26     H    0.47550   0.70896   0.05457   1.000
    H27     H    0.43375   0.52789   0.95970   1.000
    H28     H    0.09851   0.47514   0.92132   1.000
    H29     H    0.14245   0.65631   0.01769   1.000
    H30     H    0.39707   0.36170   0.62154   1.000
    H31     H    0.32704   0.43594   0.74921   1.000
    H32     H    0.27860   0.16576   0.80358   1.000
    H33     H    0.34394   0.09269   0.67379   1.000
    C34     C    0.28522   0.81496   0.41647   1.000
    C35     C    0.16181   0.77762   0.34683   1.000
    C36     C    0.08988   0.74426   0.38529   1.000
    C37     C    0.97502   0.71101   0.32092   1.000
    C38     C    0.92873   0.70659   0.21529   1.000
    C39     C    0.00000   0.73866   0.17735   1.000
    C40     C    0.11720   0.77538   0.24263   1.000
    C41     C    0.62036   0.83163   0.78874   1.000
    C42     C    0.65866   0.78442   0.86650   1.000
    C43     C    0.60664   0.68392   0.83966   1.000
    C44     C    0.64259   0.64284   0.91545   1.000
    C45     C    0.73081   0.70059   0.01966   1.000
    C46     C    0.78319   0.80091   0.04453   1.000
    C47     C    0.74781   0.84247   0.96953   1.000
    C48     C    0.66419   0.19875   0.89834   1.000
    C49     C    0.68952   0.30637   0.95816   1.000
    C50     C    0.60770   0.34284   0.97500   1.000
    C51     C    0.63195   0.44485   0.02795   1.000
    C52     C    0.73775   0.51249   0.06539   1.000
    C53     C    0.81929   0.47416   0.04916   1.000
    C54     C    0.79566   0.37265   0.99582   1.000
    C55     C    0.58797   0.82542   0.43989   1.000
    C56     C    0.62703   0.77761   0.36139   1.000
    C57     C    0.63082   0.68022   0.33837   1.000
    C58     C    0.66998   0.63902   0.26614   1.000
    C59     C    0.70505   0.69331   0.21418   1.000
    C60     C    0.69809   0.79001   0.23640   1.000
    C61     C    0.66060   0.83173   0.30917   1.000
    C62     C    0.71581   0.18505   0.58351   1.000
    C63     C    0.83919   0.22245   0.65318   1.000
    C64     C    0.91115   0.25588   0.61478   1.000
    C65     C    0.02601   0.28903   0.67914   1.000
    C66     C    0.07226   0.29330   0.78471   1.000
    C67     C    0.99876   0.26120   0.82261   1.000
    C68     C    0.88376   0.22456   0.75733   1.000
    C69     C    0.38030   0.16800   0.21117   1.000
    C70     C    0.34205   0.21522   0.13336   1.000
    C71     C    0.39412   0.31572   0.16031   1.000
    C72     C    0.35824   0.35684   0.08454   1.000
    C73     C    0.27004   0.29912   0.98031   1.000
    C74     C    0.21761   0.19880   0.95540   1.000
    C75     C    0.25291   0.15722   0.03039   1.000
    C76     C    0.33676   0.80103   0.10174   1.000
    C77     C    0.31148   0.69341   0.04192   1.000
    C78     C    0.39331   0.65696   0.02498   1.000
    C79     C    0.36908   0.55495   0.97211   1.000
    C80     C    0.26329   0.48728   0.93465   1.000
    C81     C    0.18175   0.52560   0.95091   1.000
    C82     C    0.20535   0.62711   0.00425   1.000
    C83     C    0.41312   0.17423   0.56017   1.000
    C84     C    0.37399   0.22202   0.63864   1.000
    C85     C    0.37015   0.31939   0.66160   1.000
    C86     C    0.33098   0.36062   0.73382   1.000
    C87     C    0.29592   0.30637   0.78581   1.000
    C88     C    0.30291   0.20967   0.76300   1.000
    C89     C    0.34043   0.16793   0.69090   1.000
    O90     O    0.32025   0.78190   0.49112   1.000
    O91     O    0.34656   0.87457   0.39918   1.000
    O92     O    0.67500   0.92392   0.82228   1.000
    O93     O    0.53765   0.77868   0.69621   1.000
    O94     O    0.73944   0.16885   0.87751   1.000
    O95     O    0.56989   0.13524   0.86487   1.000
    O96     O    0.55315   0.77232   0.48284   1.000
    O97     O    0.59322   0.91567   0.45970   1.000
    O98     O    0.68068   0.21801   0.50880   1.000
    O99     O    0.65454   0.12543   0.60086   1.000
    O100    O    0.32550   0.07577   0.17773   1.000
    O101    O    0.46319   0.22087   0.30360   1.000
    O102    O    0.26144   0.83088   0.12249   1.000
    O103    O    0.43104   0.86457   0.13526   1.000
    O104    O    0.44769   0.22730   0.51705   1.000
    O105    O    0.40819   0.08407   0.54050   1.000
loop_
    _geom_bond_atom_site_label_1
    _geom_bond_atom_site_label_2
    _geom_bond_distance
    _geom_bond_site_symmetry_2
    _ccdc_geom_bond_type
    C82    H29       1.08886      .   S
    C82    C77       1.40247      .   S
    C82    C81       1.39025  1_554   S
    H25    C75       1.08841      .   S
    C45    C46       1.40892      .   S
    C45    Si0       1.88317      .   S
    C45    C44       1.40833  1_554   S
    C78    C77       1.40260      .   S
    C78    H26       1.08893      .   S
    C78    C79       1.39446  1_554   S
    C51    H11       1.09084      .   S
    C51    C52       1.40803      .   S
    C51    C50       1.39460  1_554   S
    C75    C70       1.40293      .   S
    C75    C74       1.39065  1_554   S
    C77    C76       1.48125      .   S
    C46    H8        1.09123      .   S
    C46    C47       1.39060  1_554   S
    C53    C52       1.40871      .   S
    C53    H12       1.09083      .   S
    C53    C54       1.39026  1_554   S
    C52    Si0       1.87618      .   S
    C72    H23       1.09171      .   S
    C72    C71       1.39555      .   S
    C72    C73       1.40834  1_554   S
    H4     C39       1.09243  1_655   S
    C76    O102      1.29715      .   S
    C76    O103      1.27542      .   S
    Si0    C59       1.88158      .   S
    Si0    C38       1.87850      .   S
    C70    C71       1.40300      .   S
    C70    C69       1.49159      .   S
    C71    H22       1.08952      .   S
    C39    C38       1.38301  1_455   S
    C39    C40       1.41898      .   S
    O100   C69       1.28508      .   S
    H16    C60       1.08934      .   S
    C69    O101      1.27558      .   S
    H5     C40       1.08833      .   S
    C59    C60       1.40770      .   S
    C59    C58       1.40826      .   S
    C38    C37       1.40816      .   S
    C60    C61       1.38869      .   S
    C40    C35       1.40049      .   S
    H15    C58       1.09174      .   S
    C58    C57       1.39753      .   S
    C61    H17       1.08698      .   S
    C61    C56       1.40063      .   S
    C37    H3        1.09162      .   S
    C37    C36       1.39259  1_655   S
    C57    C56       1.40301      .   S
    C57    H14       1.08963      .   S
    C35    C36       1.40302      .   S
    C35    C34       1.49628      .   S
    C56    C55       1.49633      .   S
    C36    H2        1.08931      .   S
    O91    C34       1.26606      .   S
    C34    O90       1.29471      .   S
    C55    O97       1.27042      .   S
    C55    O96       1.28469      .   S
    O98    C62       1.29450      .   S
    O104   C83       1.28486      .   S
    H18    C64       1.08930      .   S
    O105   C83       1.27026      .   S
    C83    C84       1.49654      .   S
    C62    O99       1.26624      .   S
    C62    C63       1.49610      .   S
    C64    C63       1.40294      .   S
    C64    C65       1.39256  1_655   S
    H30    C85       1.08963      .   S
    C84    C85       1.40305      .   S
    C84    C89       1.40070      .   S
    H19    C65       1.09168      .   S
    C63    C68       1.40052      .   S
    C85    C86       1.39759      .   S
    H33    C89       1.08700      .   S
    C65    C66       1.40813      .   S
    C89    C88       1.38147      .   S
    O93    C41       1.27561      .   S
    C86    H31       1.09174      .   S
    C86    C87       1.40817      .   S
    C68    H21       1.08834      .   S
    C68    C67       1.39460      .   S
    H6     C43       1.09198      .   S
    C88    C87       1.40732      .   S
    C88    H32       1.09725      .   S
    C66    C67       1.40742  1_455   S
    C66    Si1       1.87855      .   S
    C87    Si1       1.88188      .   S
    C41    O92       1.28501      .   S
    C41    C42       1.49092      .   S
    C67    H20       1.09155  1_655   S
    C43    C42       1.40323      .   S
    C43    C44       1.39554      .   S
    O95    C48       1.27561      .   S
    C42    C47       1.40353      .   S
    Si1    C80       1.87633      .   S
    Si1    C73       1.88307      .   S
    H24    C74       1.09126      .   S
    O94    C48       1.29701      .   S
    H7     C44       1.09171      .   S
    C48    C49       1.48112      .   S
    H28    C81       1.09083      .   S
    C80    C81       1.40876      .   S
    C80    C79       1.40805      .   S
    H10    C50       1.08919      .   S
    C74    C73       1.40896      .   S
    C49    C50       1.40210      .   S
    C49    C54       1.40248      .   S
    H27    C79       1.09115      .   S
    C47    H9        1.08840      .   S
    H13    C54       1.08881      .   S
