# CIF file generated by openbabel 2.4.90, see http://openbabel.sf.net
data_I
_chemical_name_common ''
_cell_length_a 13.748
_cell_length_b 14.897
_cell_length_c 14.679
_cell_angle_alpha 107.387
_cell_angle_beta 112.496
_cell_angle_gamma 99.975
_space_group_name_H-M_alt 'P 1'
_space_group_name_Hall 'P 1'
loop_
    _symmetry_equiv_pos_as_xyz
    x,y,z
loop_
    _atom_site_label
    _atom_site_type_symbol
    _atom_site_fract_x
    _atom_site_fract_y
    _atom_site_fract_z
    _atom_site_occupancy
    N0      N    0.78231   0.65963   0.13202   1.000
    N1      N    0.21859   0.34014   0.86796   1.000
    Zr2     Zr   0.50051   0.99990   0.49993   1.000
    O3      O    0.56391   0.88296   0.40729   1.000
    O4      O    0.59891   0.91225   0.72651   1.000
    O5      O    0.43713   0.11685   0.59265   1.000
    O6      O    0.40201   0.08753   0.27342   1.000
loop_
    _geom_bond_atom_site_label_1
    _geom_bond_atom_site_label_2
    _geom_bond_distance
    _geom_bond_site_symmetry_2
    _ccdc_geom_bond_type
    Zr2    O3        2.37935      .   S
    N0     O3        6.41257      .   S
    Zr2    O4        3.78961      .   S
    N0     O4        7.81935  1_554   S
    Zr2    O5        2.37962  1_565   S
    N1     O5        6.41437      .   S
    Zr2    O6        3.78867  1_565   S
    N1     O6        7.81865  1_556   S
