# CIF file generated by openbabel 2.4.90, see http://openbabel.sf.net
data_I
_chemical_name_common ''
_cell_length_a 13.748
_cell_length_b 14.897
_cell_length_c 14.679
_cell_angle_alpha 107.387
_cell_angle_beta 112.496
_cell_angle_gamma 99.975
_space_group_name_H-M_alt 'P 1'
_space_group_name_Hall 'P 1'
loop_
    _symmetry_equiv_pos_as_xyz
    x,y,z
loop_
    _atom_site_label
    _atom_site_type_symbol
    _atom_site_fract_x
    _atom_site_fract_y
    _atom_site_fract_z
    _atom_site_occupancy
    N0      N    0.78231   0.65963   0.13202   1.000
    N1      N    0.21859   0.34014   0.86796   1.000
    Zr2     Zr   0.50051   0.99990   0.49993   1.000
    O3      O    0.54608   0.86477   0.41593   1.000
    O4      O    0.57519   0.86357   0.41489   1.000
    O5      O    0.57325   0.86436   0.69157   1.000
    O6      O    0.42576   0.13619   0.58500   1.000
    O7      O    0.45488   0.13503   0.58397   1.000
    O8      O    0.42770   0.13539   0.30832   1.000
    O9      O    0.59603   0.93562   0.73940   1.000
    O10     O    0.61722   0.93982   0.74098   1.000
    O11     O    0.60916   0.90920   0.73408   1.000
    O12     O    0.55177   0.89918   0.39538   1.000
    O13     O    0.58260   0.90432   0.40295   1.000
    O14     O    0.41854   0.09549   0.59703   1.000
    O15     O    0.44934   0.10066   0.60458   1.000
    O16     O    0.40491   0.06418   0.26055   1.000
    O17     O    0.38371   0.05996   0.25895   1.000
    O18     O    0.39172   0.09058   0.26586   1.000
loop_
    _geom_bond_atom_site_label_1
    _geom_bond_atom_site_label_2
    _geom_bond_distance
    _geom_bond_site_symmetry_2
    _ccdc_geom_bond_type
    Zr2    O3        2.34736      .   S
    N0     O3        6.59079      .   S
    Zr2    O4        2.63155      .   S
    N0     O4        6.25180      .   S
    Zr2    O5        3.86409      .   S
    N0     O5        7.74381  1_554   S
    Zr2    O6        2.63197  1_565   S
    N1     O6        6.25326      .   S
    Zr2    O7        2.34797  1_565   S
    N1     O7        6.59213      .   S
    Zr2    O8        3.86332  1_565   S
    N1     O8        7.74287  1_556   S
    Zr2    O9        3.73004      .   S
    N0     O9        7.94931  1_554   S
    Zr2    O10       3.73384      .   S
    N0     O10       7.94688  1_554   S
    Zr2    O11       3.92634      .   S
    N0     O11       7.68217  1_554   S
    Zr2    O12       2.21834      .   S
    N0     O12       6.54024      .   S
    Zr2    O13       2.42958      .   S
    N0     O13       6.30870      .   S
    Zr2    O14       2.42923  1_565   S
    N1     O14       6.31107      .   S
    Zr2    O15       2.21863  1_565   S
    N1     O15       6.54224      .   S
    Zr2    O16       3.72887  1_565   S
    N1     O16       7.94873  1_556   S
    Zr2    O17       3.73290  1_565   S
    N1     O17       7.94622  1_556   S
    Zr2    O18       3.92540  1_565   S
    N1     O18       7.68149  1_556   S
