# CIF file generated by openbabel 2.4.90, see http://openbabel.sf.net
data_I
_chemical_name_common ''
_cell_length_a 13.748
_cell_length_b 14.897
_cell_length_c 14.679
_cell_angle_alpha 107.387
_cell_angle_beta 112.496
_cell_angle_gamma 99.975
_space_group_name_H-M_alt 'P 1'
_space_group_name_Hall 'P 1'
loop_
    _symmetry_equiv_pos_as_xyz
    x,y,z
loop_
    _atom_site_label
    _atom_site_type_symbol
    _atom_site_fract_x
    _atom_site_fract_y
    _atom_site_fract_z
    _atom_site_occupancy
    Zr0     Zr   0.48169   0.81735   0.57253   1.000
    Zr1     Zr   0.63164   0.03082   0.78657   1.000
    Zr2     Zr   0.51915   0.18235   0.42730   1.000
    Zr3     Zr   0.36899   0.96894   0.21347   1.000
    Zr4     Zr   0.50093   0.99998   0.50011   1.000
    Zr5     Zr   0.44880   0.98500   0.63747   1.000
    Zr6     Zr   0.55227   0.01493   0.36205   1.000
    Zr7     Zr   0.51461   0.96876   0.63690   1.000
    Zr8     Zr   0.48652   0.03102   0.36301   1.000
    O9      O    0.42776   0.99998   0.28824   1.000
    O10     O    0.51939   0.02297   0.36253   1.000
    O11     O    0.48171   0.97688   0.63719   1.000
    O12     O    0.57313   0.99979   0.71173   1.000
    O13     O    0.49815   0.89305   0.60472   1.000
    O14     O    0.50777   0.98437   0.56851   1.000
    O15     O    0.50284   0.10669   0.39515   1.000
    O16     O    0.49373   0.01550   0.43156   1.000
    N17     N    0.78231   0.65963   0.13202   1.000
    O18     O    0.59164   0.72963   0.33192   1.000
    O19     O    0.60303   0.79845   0.29083   1.000
    O20     O    0.71781   0.81850   0.96822   1.000
    O21     O    0.64599   0.72882   0.88320   1.000
    O22     O    0.73392   0.87973   0.98203   1.000
    O23     O    0.69154   0.87133   0.97887   1.000
    O24     O    0.64986   0.72723   0.32985   1.000
    O25     O    0.66469   0.80873   0.30596   1.000
    N26     N    0.21859   0.34014   0.86796   1.000
    O27     O    0.40925   0.27016   0.66801   1.000
    O28     O    0.39816   0.20142   0.70922   1.000
    O29     O    0.28292   0.18125   0.03178   1.000
    O30     O    0.35488   0.27088   0.11671   1.000
    O31     O    0.26690   0.12002   0.01797   1.000
    O32     O    0.30930   0.12845   0.02116   1.000
    O33     O    0.35101   0.27248   0.67007   1.000
    O34     O    0.33658   0.19108   0.69413   1.000
loop_
    _geom_bond_atom_site_label_1
    _geom_bond_atom_site_label_2
    _geom_bond_distance
    _geom_bond_site_symmetry_2
    _ccdc_geom_bond_type
    Zr3    O9        0.97972      .   S
    Zr8    O9        0.97972  1_545   S
    Zr6    O10       0.48925      .   S
    Zr8    O10       0.48925      .   S
    Zr7    O11       0.48929      .   S
    Zr5    O11       0.48929      .   S
    Zr7    O12       0.97927      .   S
    Zr1    O12       0.97927  1_545   S
    Zr7    O13       1.02842      .   S
    Zr0    O13       1.02842      .   S
    Zr7    O14       1.07039      .   S
    Zr4    O14       1.07039      .   S
    Zr8    O15       1.02816      .   S
    Zr2    O15       1.02816      .   S
    Zr8    O16       1.07075      .   S
    Zr4    O16       1.07075  1_565   S
    N17    O18       4.64474      .   S
    Zr0    O18       4.29858      .   S
    N17    O19       4.36668      .   S
    Zr4    O19       4.43481      .   S
    N17    O20       3.82946  1_554   S
    Zr1    O20       4.73696  1_545   S
    N17    O21       3.94926  1_554   S
    Zr0    O21       4.93772      .   S
    N17    O22       4.47103  1_554   S
    Zr1    O22       4.14049  1_545   S
    N17    O23       4.47333  1_554   S
    Zr1    O23       4.14706  1_545   S
    N17    O24       3.96189      .   S
    Zr0    O24       4.93530      .   S
    N17    O25       3.88349      .   S
    Zr4    O25       4.85667      .   S
    N26    O27       4.64523      .   S
    Zr2    O27       4.29950      .   S
    N26    O28       4.36879      .   S
    Zr4    O28       4.43914  1_565   S
    N26    O29       3.82973  1_556   S
    Zr3    O29       4.73695  1_565   S
    N26    O30       3.94886  1_556   S
    Zr2    O30       4.93674      .   S
    N26    O31       4.47131  1_556   S
    Zr3    O31       4.14040  1_565   S
    N26    O32       4.47351  1_556   S
    Zr3    O32       4.14725  1_565   S
    N26    O33       3.96241      .   S
    Zr2    O33       4.93611      .   S
    N26    O34       3.88605      .   S
    Zr4    O34       4.86095  1_565   S
