# CIF file generated by openbabel 2.4.90, see http://openbabel.sf.net
data_I
_chemical_name_common ''
_cell_length_a 19.314
_cell_length_b 21.4
_cell_length_c 26.004
_cell_angle_alpha 57.185
_cell_angle_beta 75.071
_cell_angle_gamma 69.375
_space_group_name_H-M_alt 'P 1'
_space_group_name_Hall 'P 1'
loop_
    _symmetry_equiv_pos_as_xyz
    x,y,z
loop_
    _atom_site_label
    _atom_site_type_symbol
    _atom_site_fract_x
    _atom_site_fract_y
    _atom_site_fract_z
    _atom_site_occupancy
    H0      H    0.23930   0.31524   0.17550   1.000
    H1      H    0.23927   0.31526   0.67555   1.000
    H2      H    0.23938   0.81528   0.17549   1.000
    H3      H    0.23934   0.81531   0.67551   1.000
    H4      H    0.73931   0.31525   0.17554   1.000
    H5      H    0.73928   0.31526   0.67555   1.000
    H6      H    0.73939   0.81528   0.17549   1.000
    H7      H    0.73934   0.81532   0.67551   1.000
    H8      H    0.32259   0.19396   0.17797   1.000
    H9      H    0.32255   0.19396   0.67801   1.000
    H10     H    0.32265   0.69395   0.17799   1.000
    H11     H    0.32262   0.69401   0.67797   1.000
    H12     H    0.82260   0.19397   0.17790   1.000
    H13     H    0.82256   0.19396   0.67801   1.000
    H14     H    0.82266   0.69395   0.17799   1.000
    H15     H    0.82263   0.69401   0.67797   1.000
    H16     H    0.00484   0.23368   0.21196   1.000
    H17     H    0.00480   0.23369   0.71198   1.000
    H18     H    0.00489   0.73365   0.21201   1.000
    H19     H    0.00485   0.73370   0.71201   1.000
    H20     H    0.50483   0.23368   0.21196   1.000
    H21     H    0.50480   0.23369   0.71190   1.000
    H22     H    0.50488   0.73365   0.21201   1.000
    H23     H    0.50484   0.73370   0.71201   1.000
    H24     H    0.42170   0.35345   0.21141   1.000
    H25     H    0.42167   0.35349   0.71100   1.000
    H26     H    0.42176   0.85348   0.21139   1.000
    H27     H    0.42171   0.85350   0.71143   1.000
    H28     H    0.92171   0.35346   0.21141   1.000
    H29     H    0.92168   0.35349   0.71139   1.000
    H30     H    0.92177   0.85348   0.21130   1.000
    H31     H    0.92172   0.85350   0.71142   1.000
    H32     H    0.35839   0.30634   0.45243   1.000
    H33     H    0.35838   0.30641   0.95236   1.000
    H34     H    0.35837   0.80632   0.45235   1.000
    H35     H    0.35834   0.80632   0.95241   1.000
    H36     H    0.85839   0.30635   0.45240   1.000
    H37     H    0.85839   0.30641   0.95236   1.000
    H38     H    0.85838   0.80632   0.45235   1.000
    H39     H    0.85835   0.80632   0.95240   1.000
    H40     H    0.14257   0.30370   0.43900   1.000
    H41     H    0.14257   0.30373   0.93896   1.000
    H42     H    0.14255   0.80367   0.43894   1.000
    H43     H    0.14252   0.80364   0.93902   1.000
    H44     H    0.64258   0.30370   0.43900   1.000
    H45     H    0.64258   0.30373   0.93896   1.000
    H46     H    0.64256   0.80368   0.43894   1.000
    H47     H    0.64253   0.80364   0.93902   1.000
    H48     H    0.26075   0.18475   0.32446   1.000
    H49     H    0.26070   0.18478   0.82448   1.000
    H50     H    0.26081   0.68481   0.32443   1.000
    H51     H    0.26078   0.68483   0.82443   1.000
    H52     H    0.76075   0.18475   0.32446   1.000
    H53     H    0.76071   0.18479   0.82448   1.000
    H54     H    0.76081   0.68481   0.32442   1.000
    H55     H    0.76078   0.68483   0.82443   1.000
    H56     H    0.17747   0.30605   0.32200   1.000
    H57     H    0.17743   0.30611   0.82199   1.000
    H58     H    0.17753   0.80611   0.32196   1.000
    H59     H    0.17748   0.80611   0.82201   1.000
    H60     H    0.67747   0.30605   0.32200   1.000
    H61     H    0.67744   0.30611   0.82198   1.000
    H62     H    0.67753   0.80612   0.32196   1.000
    H63     H    0.67749   0.80611   0.82200   1.000
    H64     H    0.49524   0.26636   0.28797   1.000
    H65     H    0.49520   0.26641   0.78790   1.000
    H66     H    0.49529   0.76638   0.28799   1.000
    H67     H    0.49526   0.76639   0.78801   1.000
    H68     H    0.99524   0.26636   0.28797   1.000
    H69     H    0.99520   0.26641   0.78798   1.000
    H70     H    0.99529   0.76638   0.28799   1.000
    H71     H    0.99525   0.76639   0.78801   1.000
    H72     H    0.07836   0.14656   0.28855   1.000
    H73     H    0.07831   0.14659   0.78859   1.000
    H74     H    0.07841   0.64658   0.28858   1.000
    H75     H    0.07838   0.64661   0.78857   1.000
    H76     H    0.57837   0.14657   0.28855   1.000
    H77     H    0.57832   0.14659   0.78859   1.000
    H78     H    0.57842   0.64658   0.28858   1.000
    H79     H    0.57839   0.64661   0.78857   1.000
    H80     H    0.14174   0.19375   0.04756   1.000
    H81     H    0.14171   0.19375   0.54761   1.000
    H82     H    0.14169   0.69366   0.04762   1.000
    H83     H    0.14169   0.69373   0.54756   1.000
    C84     C    0.81124   0.78120   0.97375   1.000
    C85     C    0.18931   0.27973   0.46615   1.000
    C86     C    0.18932   0.27977   0.96610   1.000
    C87     C    0.18930   0.77971   0.46609   1.000
    H88     H    0.64175   0.19375   0.04750   1.000
    H89     H    0.64172   0.19375   0.54761   1.000
    H90     H    0.64170   0.69367   0.04762   1.000
    H91     H    0.64170   0.69373   0.54755   1.000
    H92     H    0.35755   0.19643   0.06096   1.000
    H93     H    0.35752   0.19640   0.56104   1.000
    H94     H    0.35752   0.69634   0.06100   1.000
    H95     H    0.35752   0.69637   0.56097   1.000
    H96     H    0.85756   0.19644   0.06096   1.000
    H97     H    0.85753   0.19640   0.56104   1.000
    H98     H    0.85753   0.69634   0.06100   1.000
    H99     H    0.85752   0.69638   0.56096   1.000
    C100    C    0.32463   0.34036   0.19540   1.000
    C101    C    0.32460   0.34039   0.69539   1.000
    C102    C    0.32471   0.84039   0.19535   1.000
    C103    C    0.32466   0.84041   0.69538   1.000
    C104    C    0.82464   0.34036   0.19539   1.000
    C105    C    0.82461   0.34039   0.69539   1.000
    C106    C    0.82471   0.84039   0.19534   1.000
    C107    C    0.82466   0.84042   0.69538   1.000
    C108    C    0.09995   0.18129   0.29617   1.000
    C109    C    0.09990   0.18132   0.79620   1.000
    C110    C    0.10000   0.68131   0.29618   1.000
    C111    C    0.09997   0.68133   0.79618   1.000
    C112    C    0.59995   0.18129   0.29617   1.000
    C113    C    0.29757   0.29675   0.18362   1.000
    C114    C    0.29754   0.29676   0.68363   1.000
    C115    C    0.29764   0.79677   0.18359   1.000
    C116    C    0.29760   0.79681   0.68360   1.000
    C117    C    0.79758   0.29675   0.18360   1.000
    C118    C    0.79755   0.29677   0.68363   1.000
    C119    C    0.79765   0.79677   0.18358   1.000
    C120    C    0.79761   0.79681   0.68360   1.000
    C121    C    0.34386   0.22899   0.18540   1.000
    C122    C    0.34382   0.22900   0.68550   1.000
    C123    C    0.34392   0.72899   0.18547   1.000
    C124    C    0.34388   0.72904   0.68547   1.000
    C125    C    0.84386   0.22900   0.18546   1.000
    C126    C    0.84382   0.22900   0.68500   1.000
    C127    C    0.84392   0.72899   0.18547   1.000
    C128    C    0.84389   0.72904   0.68540   1.000
    C129    C    0.41795   0.20420   0.19876   1.000
    C130    C    0.41792   0.20420   0.69879   1.000
    C131    C    0.41800   0.70418   0.19879   1.000
    C132    C    0.41797   0.70423   0.69878   1.000
    C133    C    0.91796   0.20420   0.19875   1.000
    C134    C    0.91792   0.20420   0.69879   1.000
    C135    C    0.91801   0.70418   0.19879   1.000
    C136    C    0.91797   0.70424   0.69878   1.000
    C137    C    0.44643   0.25160   0.20480   1.000
    C138    C    0.44639   0.25162   0.70482   1.000
    C139    C    0.44648   0.75159   0.20482   1.000
    C140    C    0.44644   0.75164   0.70483   1.000
    C141    C    0.94644   0.25161   0.20400   1.000
    C142    C    0.94640   0.25162   0.70482   1.000
    C143    C    0.94649   0.75159   0.20482   1.000
    C144    C    0.94645   0.75164   0.70483   1.000
    C145    C    0.40011   0.31873   0.20380   1.000
    C146    C    0.40008   0.31876   0.70380   1.000
    C147    C    0.40018   0.81874   0.20378   1.000
    C148    C    0.40013   0.81878   0.70381   1.000
    C149    C    0.90012   0.31873   0.20300   1.000
    C150    C    0.90009   0.31876   0.70379   1.000
    C151    C    0.90018   0.81875   0.20378   1.000
    C152    C    0.90014   0.81878   0.70381   1.000
    C153    C    0.25054   0.31141   0.43945   1.000
    C154    C    0.25054   0.31146   0.93900   1.000
    C155    C    0.25053   0.81138   0.43938   1.000
    C156    C    0.25050   0.81136   0.93945   1.000
    C157    C    0.75055   0.31141   0.43944   1.000
    C158    C    0.75055   0.31146   0.93939   1.000
    C159    C    0.75053   0.81138   0.43938   1.000
    C160    C    0.75050   0.81137   0.93944   1.000
    C161    C    0.31127   0.28123   0.47377   1.000
    C162    C    0.31128   0.28129   0.97371   1.000
    C163    C    0.31126   0.78121   0.47370   1.000
    C164    C    0.31124   0.78119   0.97376   1.000
    C165    C    0.81128   0.28124   0.47377   1.000
    C166    C    0.81129   0.28129   0.97371   1.000
    C167    C    0.81127   0.78121   0.47370   1.000
    C168    C    0.18927   0.77967   0.96616   1.000
    C169    C    0.68932   0.27974   0.46615   1.000
    C170    C    0.68932   0.27977   0.96610   1.000
    C171    C    0.68931   0.77971   0.46608   1.000
    C172    C    0.68928   0.77968   0.96616   1.000
    C173    C    0.17542   0.15965   0.30460   1.000
    C174    C    0.17537   0.15968   0.80463   1.000
    C175    C    0.17548   0.65968   0.30459   1.000
    C176    C    0.17545   0.65971   0.80450   1.000
    C177    C    0.67543   0.15965   0.30459   1.000
    C178    C    0.67538   0.15968   0.80463   1.000
    C179    C    0.67549   0.65968   0.30459   1.000
    C180    C    0.67546   0.65971   0.80458   1.000
    C181    C    0.20248   0.20325   0.31638   1.000
    C182    C    0.20244   0.20329   0.81639   1.000
    C183    C    0.20254   0.70331   0.31635   1.000
    C184    C    0.20251   0.70332   0.81636   1.000
    C185    C    0.70249   0.20326   0.31637   1.000
    C186    C    0.70245   0.20329   0.81639   1.000
    C187    C    0.70255   0.70331   0.31634   1.000
    C188    C    0.70252   0.70332   0.81636   1.000
    C189    C    0.15620   0.27102   0.31451   1.000
    C190    C    0.15617   0.27107   0.81450   1.000
    C191    C    0.15626   0.77107   0.31448   1.000
    C192    C    0.15622   0.77108   0.81451   1.000
    C193    C    0.65621   0.27102   0.31451   1.000
    C194    C    0.65617   0.27107   0.81450   1.000
    C195    C    0.65627   0.77108   0.31447   1.000
    C196    C    0.65623   0.77108   0.81451   1.000
    C197    C    0.08211   0.29583   0.30120   1.000
    C198    C    0.08208   0.29588   0.80119   1.000
    C199    C    0.08217   0.79587   0.30118   1.000
    C200    C    0.08213   0.79587   0.80122   1.000
    C201    C    0.58212   0.29583   0.30120   1.000
    C202    C    0.58208   0.29588   0.80119   1.000
    C203    C    0.58217   0.79587   0.30118   1.000
    C204    C    0.58213   0.79588   0.80121   1.000
    C205    C    0.05364   0.24842   0.29515   1.000
    C206    C    0.05360   0.24847   0.79516   1.000
    C207    C    0.05369   0.74845   0.29516   1.000
    C208    C    0.05365   0.74846   0.79518   1.000
    C209    C    0.55364   0.24842   0.29515   1.000
    C210    C    0.55360   0.24847   0.79516   1.000
    C211    C    0.55370   0.74845   0.29516   1.000
    C212    C    0.55366   0.74847   0.79518   1.000
    C213    C    0.59990   0.18132   0.79620   1.000
    C214    C    0.60001   0.68131   0.29618   1.000
    C215    C    0.59998   0.68134   0.79618   1.000
    C216    C    0.24958   0.18871   0.06053   1.000
    C217    C    0.24955   0.18869   0.56000   1.000
    C218    C    0.24954   0.68862   0.06058   1.000
    C219    C    0.24954   0.68866   0.56053   1.000
    C220    C    0.74959   0.18871   0.06052   1.000
    C221    C    0.74956   0.18869   0.56059   1.000
    C222    C    0.74955   0.68862   0.06058   1.000
    C223    C    0.74955   0.68867   0.56053   1.000
    C224    C    0.18884   0.21888   0.02621   1.000
    C225    C    0.18882   0.21886   0.52627   1.000
    C226    C    0.18880   0.71879   0.02627   1.000
    C227    C    0.18880   0.71884   0.52621   1.000
    C228    C    0.68885   0.21888   0.02621   1.000
    C229    C    0.68883   0.21887   0.52627   1.000
    C230    C    0.68881   0.71879   0.02627   1.000
    C231    C    0.68881   0.71884   0.52621   1.000
    C232    C    0.31080   0.22040   0.03382   1.000
    C233    C    0.31078   0.22037   0.53389   1.000
    C234    C    0.31076   0.72030   0.03387   1.000
    C235    C    0.31077   0.72034   0.53382   1.000
    C236    C    0.81081   0.22040   0.03382   1.000
    C237    C    0.81078   0.22037   0.53389   1.000
    C238    C    0.81077   0.72030   0.03386   1.000
    C239    C    0.81078   0.72034   0.53382   1.000
loop_
    _geom_bond_atom_site_label_1
    _geom_bond_atom_site_label_2
    _geom_bond_distance
    _geom_bond_site_symmetry_2
    _ccdc_geom_bond_type
    C228   H88       1.08892      .   S
    C228   C220      1.40372      .   S
    C228   C170      1.39096  1_554   S
    C224   H80       1.08895      .   S
    C224   C216      1.40387      .   S
    C224   C86       1.39097  1_554   S
    C230   H90       1.08896      .   S
    C230   C222      1.40381      .   S
    C230   C172      1.39094  1_554   S
    C226   H82       1.08894      .   S
    C226   C218      1.40379      .   S
    C226   C168      1.39093  1_554   S
    C232   C216      1.40414      .   S
    C232   H92       1.08912      .   S
    C232   C162      1.39094  1_554   S
    C236   C220      1.40414      .   S
    C236   H96       1.08911      .   S
    C236   C166      1.39095  1_554   S
    C238   C222      1.40414      .   S
    C238   H98       1.08920      .   S
    C238   C84       1.39096  1_554   S
    C234   C218      1.40414      .   S
    C234   H94       1.08904      .   S
    C234   C164      1.39095  1_554   S
    H6     C119      1.08858      .   S
    H2     C115      1.08865      .   S
    H0     C113      1.08892      .   S
    H4     C117      1.08851      .   S
    H12    C125      1.08968      .   S
    H8     C121      1.08750      .   S
    H14    C127      1.08854      .   S
    H10    C123      1.08854      .   S
    C119   C127      1.39185      .   S
    C119   C106      1.40480      .   S
    C115   C123      1.39194      .   S
    C115   C102      1.40480      .   S
    C117   C125      1.39176      .   S
    C117   C104      1.40507      .   S
    C113   C121      1.39251      .   S
    C113   C100      1.40491      .   S
    C121   C129      1.40417      .   S
    C125   C133      1.40360      .   S
    C127   C135      1.40363      .   S
    C123   C131      1.40367      .   S
    C106   C151      1.40234      .   S
    C102   C147      1.40227      .   S
    C104   C149      1.39743      .   S
    C100   C145      1.40232      .   S
    C133   C141      1.39007      .   S
    C129   C137      1.40242      .   S
    C135   C143      1.40238      .   S
    C131   C139      1.40236      .   S
    C149   C141      1.38948      .   S
    C149   H28       1.10237      .   S
    C147   C139      1.38944      .   S
    C147   H26       1.08884      .   S
    C151   C143      1.38946      .   S
    C151   H30       1.08732      .   S
    C145   C137      1.38947      .   S
    C145   H24       1.08871      .   S
    C141   H16       1.09170  1_655   S
    C137   H20       1.08637      .   S
    C139   H22       1.08642      .   S
    C143   H18       1.08639  1_655   S
    H68    C205      1.08637  1_655   S
    H64    C209      1.08639      .   S
    H66    C211      1.08641      .   S
    H70    C207      1.08639  1_655   S
    H72    C108      1.08881      .   S
    H76    C112      1.08882      .   S
    H74    C110      1.08880      .   S
    H78    C214      1.08876      .   S
    C205   C108      1.38943      .   S
    C205   C197      1.40248      .   S
    C209   C112      1.38938      .   S
    C209   C201      1.40247      .   S
    C211   C214      1.38949      .   S
    C211   C203      1.40243      .   S
    C207   C110      1.38949      .   S
    C207   C199      1.40239      .   S
    C108   C173      1.40234      .   S
    C112   C177      1.40230      .   S
    C110   C175      1.40234      .   S
    C214   C179      1.40234      .   S
    C203   C195      1.40358      .   S
    C199   C191      1.40364      .   S
    C197   C189      1.40363      .   S
    C201   C193      1.40365      .   S
    C175   C183      1.40487      .   S
    C177   C185      1.40482      .   S
    C179   C187      1.40472      .   S
    C173   C181      1.40484      .   S
    C195   C187      1.39186      .   S
    C195   H62       1.08869      .   S
    C191   C183      1.39185      .   S
    C191   H58       1.08855      .   S
    C193   C185      1.39192      .   S
    C193   H60       1.08852      .   S
    C189   C181      1.39183      .   S
    C189   H56       1.08851      .   S
    C187   H54       1.08861      .   S
    C183   H50       1.08861      .   S
    C185   H52       1.08863      .   S
    C181   H48       1.08857      .   S
    H42    C87       1.08922      .   S
    H46    C171      1.08907      .   S
    H44    C169      1.08917      .   S
    H40    C85       1.08915      .   S
    C155   C87       1.40415      .   S
    C155   C163      1.40379      .   S
    C159   C171      1.40414      .   S
    C159   C167      1.40380      .   S
    C157   C169      1.40415      .   S
    C157   C165      1.40389      .   S
    C153   C85       1.40414      .   S
    C153   C161      1.40375      .   S
    H34    C163      1.08896      .   S
    H38    C167      1.08896      .   S
    H36    C165      1.08896      .   S
    H32    C161      1.08894      .   S
    C171   C231      1.39112      .   S
    C87    C227      1.39095      .   S
    C169   C229      1.39098      .   S
    C85    C225      1.39099      .   S
    C163   C235      1.39098      .   S
    C167   C239      1.39097      .   S
    C161   C233      1.39097      .   S
    C165   C237      1.39096      .   S
    C227   H83       1.08895      .   S
    C227   C219      1.40379      .   S
    C231   H91       1.08894      .   S
    C231   C223      1.40379      .   S
    C229   H89       1.08895      .   S
    C229   C221      1.40374      .   S
    C225   H81       1.08895      .   S
    C225   C217      1.39455      .   S
    C235   C219      1.40414      .   S
    C235   H95       1.08922      .   S
    C239   C223      1.40415      .   S
    C239   H99       1.08906      .   S
    C237   C221      1.40415      .   S
    C237   H97       1.08917      .   S
    C233   C217      1.40399      .   S
    C233   H93       1.08914      .   S
    H3     C116      1.08861      .   S
    H7     C120      1.08860      .   S
    H1     C114      1.08861      .   S
    H5     C118      1.08863      .   S
    H15    C128      1.08749      .   S
    H11    C124      1.08867      .   S
    H13    C126      1.08030      .   S
    H9     C122      1.08871      .   S
    C116   C124      1.39185      .   S
    C116   C103      1.40485      .   S
    C120   C128      1.39251      .   S
    C120   C107      1.40487      .   S
    C114   C122      1.39186      .   S
    C114   C101      1.40485      .   S
    C118   C126      1.39666      .   S
    C118   C105      1.40485      .   S
    C126   C134      1.40759      .   S
    C128   C136      1.40414      .   S
    C124   C132      1.40361      .   S
    C122   C130      1.40360      .   S
    C103   C148      1.40231      .   S
    C107   C152      1.40230      .   S
    C101   C146      1.40236      .   S
    C105   C150      1.40229      .   S
    C136   C144      1.40244      .   S
    C132   C140      1.40246      .   S
    C134   C142      1.40251      .   S
    C130   C138      1.40248      .   S
    C150   C142      1.38941      .   S
    C150   H29       1.08874      .   S
    C146   C138      1.38948      .   S
    C146   H25       1.08201      .   S
    C148   C140      1.38945      .   S
    C148   H27       1.08881      .   S
    C152   C144      1.38945      .   S
    C152   H31       1.08865      .   S
    C142   H17       1.08635  1_655   S
    C138   H21       1.08585      .   S
    C144   H19       1.08635  1_655   S
    C140   H23       1.08638      .   S
    H65    C210      1.08689      .   S
    H69    C206      1.08637  1_655   S
    H71    C208      1.08643  1_655   S
    H67    C212      1.08644      .   S
    H79    C215      1.08875      .   S
    H75    C111      1.08872      .   S
    H77    C213      1.08883      .   S
    H73    C109      1.08883      .   S
    C206   C109      1.38943      .   S
    C206   C198      1.40241      .   S
    C210   C213      1.38942      .   S
    C210   C202      1.40241      .   S
    C212   C215      1.38951      .   S
    C212   C204      1.40230      .   S
    C208   C111      1.38951      .   S
    C208   C200      1.40244      .   S
    C215   C180      1.40230      .   S
    C111   C176      1.40179      .   S
    C213   C178      1.40231      .   S
    C109   C174      1.40232      .   S
    C198   C190      1.40359      .   S
    C202   C194      1.40361      .   S
    C204   C196      1.40368      .   S
    C200   C192      1.40361      .   S
    C176   C184      1.40638      .   S
    C180   C188      1.40493      .   S
    C174   C182      1.40478      .   S
    C178   C186      1.40480      .   S
    C194   C186      1.39184      .   S
    C194   H61       1.08858      .   S
    C190   C182      1.39184      .   S
    C190   H57       1.08875      .   S
    C196   C188      1.39186      .   S
    C196   H63       1.08851      .   S
    C192   C184      1.39186      .   S
    C192   H59       1.08867      .   S
    C184   H51       1.08856      .   S
    C188   H55       1.08857      .   S
    C186   H53       1.08862      .   S
    C182   H49       1.08862      .   S
    H45    C170      1.08912      .   S
    H41    C86       1.08912      .   S
    C154   C86       1.40435      .   S
    C154   C162      1.40999      .   S
    H43    C168      1.08920      .   S
    H47    C172      1.08919      .   S
    C158   C170      1.40414      .   S
    C158   C166      1.40388      .   S
    C160   C172      1.40415      .   S
    C160   C84       1.40379      .   S
    C156   C168      1.40415      .   S
    C156   C164      1.40378      .   S
    H37    C166      1.08895      .   S
    H33    C162      1.08896      .   S
    H39    C84       1.08895      .   S
    H35    C164      1.08895      .   S
