# CIF file generated by openbabel 2.4.90, see http://openbabel.sf.net
data_I
_chemical_name_common ''
_cell_length_a 19.314
_cell_length_b 21.4
_cell_length_c 26.004
_cell_angle_alpha 57.185
_cell_angle_beta 75.071
_cell_angle_gamma 69.375
_space_group_name_H-M_alt 'P 1'
_space_group_name_Hall 'P 1'
loop_
    _symmetry_equiv_pos_as_xyz
    x,y,z
loop_
    _atom_site_label
    _atom_site_type_symbol
    _atom_site_fract_x
    _atom_site_fract_y
    _atom_site_fract_z
    _atom_site_occupancy
    C0      C    0.27189   0.40473   0.20411   1.000
    C1      C    0.27187   0.40478   0.70408   1.000
    C2      C    0.27198   0.90480   0.20400   1.000
    C3      C    0.27193   0.90481   0.70407   1.000
    C4      C    0.77190   0.40473   0.20411   1.000
    C5      C    0.77187   0.40478   0.70408   1.000
    C6      C    0.77199   0.90480   0.20401   1.000
    C7      C    0.77194   0.90481   0.70407   1.000
    C8      C    0.03477   0.37445   0.28872   1.000
    C9      C    0.03474   0.37451   0.78869   1.000
    C10     C    0.03481   0.87450   0.28870   1.000
    C11     C    0.03477   0.87449   0.78875   1.000
    C12     C    0.53477   0.37445   0.28872   1.000
    C13     C    0.53474   0.37452   0.78869   1.000
    C14     C    0.53482   0.87450   0.28870   1.000
    C15     C    0.53477   0.87450   0.78875   1.000
    C16     C    0.25116   0.37683   0.37470   1.000
    C17     C    0.25114   0.37689   0.87465   1.000
    C18     C    0.25114   0.87681   0.37463   1.000
    C19     C    0.25108   0.87680   0.87470   1.000
    C20     C    0.75117   0.37684   0.37469   1.000
    C21     C    0.75115   0.37690   0.87465   1.000
    C22     C    0.75114   0.87682   0.37460   1.000
    C23     C    0.75109   0.87681   0.87470   1.000
    C24     C    0.22815   0.09526   0.29590   1.000
    C25     C    0.22809   0.09527   0.79596   1.000
    C26     C    0.22822   0.59529   0.29500   1.000
    C27     C    0.22819   0.59534   0.79587   1.000
    C28     C    0.72816   0.09526   0.29590   1.000
    C29     C    0.72810   0.09527   0.79590   1.000
    C30     C    0.72823   0.59530   0.29589   1.000
    C31     C    0.72820   0.59534   0.79580   1.000
    C32     C    0.46532   0.12558   0.21121   1.000
    C33     C    0.46527   0.12557   0.71127   1.000
    C34     C    0.46535   0.62555   0.21129   1.000
    C35     C    0.46532   0.62561   0.71120   1.000
    C36     C    0.96532   0.12558   0.21121   1.000
    C37     C    0.96528   0.12558   0.71127   1.000
    C38     C    0.96535   0.62555   0.21129   1.000
    C39     C    0.96532   0.62561   0.71126   1.000
    C40     C    0.24899   0.12326   0.12527   1.000
    C41     C    0.24894   0.12325   0.62534   1.000
    C42     C    0.24895   0.62318   0.12533   1.000
    C43     C    0.24893   0.62324   0.62528   1.000
    C44     C    0.74900   0.12326   0.12527   1.000
    C45     C    0.74895   0.12326   0.62534   1.000
    C46     C    0.74896   0.62318   0.12530   1.000
    C47     C    0.74893   0.62324   0.62528   1.000
