# CIF file generated by openbabel 2.4.90, see http://openbabel.sf.net
data_I
_chemical_name_common ''
_cell_length_a 19.314
_cell_length_b 21.4
_cell_length_c 26.004
_cell_angle_alpha 57.185
_cell_angle_beta 75.071
_cell_angle_gamma 69.375
_space_group_name_H-M_alt 'P 1'
_space_group_name_Hall 'P 1'
loop_
    _symmetry_equiv_pos_as_xyz
    x,y,z
loop_
    _atom_site_label
    _atom_site_type_symbol
    _atom_site_fract_x
    _atom_site_fract_y
    _atom_site_fract_z
    _atom_site_occupancy
    Zr0     Zr   0.14567   0.00264   0.24676   1.000
    Zr1     Zr   0.14562   0.00262   0.74683   1.000
    Zr2     Zr   0.14565   0.50257   0.24686   1.000
    Zr3     Zr   0.14563   0.50263   0.74681   1.000
    Zr4     Zr   0.64567   0.00264   0.24675   1.000
    Zr5     Zr   0.64562   0.00263   0.74680   1.000
    Zr6     Zr   0.64566   0.50257   0.24685   1.000
    Zr7     Zr   0.64563   0.50264   0.74681   1.000
    Zr8     Zr   0.35446   0.49743   0.25317   1.000
    Zr9     Zr   0.35444   0.49750   0.75312   1.000
    Zr10    Zr   0.35447   0.99744   0.25314   1.000
    Zr11    Zr   0.35441   0.99743   0.75321   1.000
    Zr12    Zr   0.85446   0.49744   0.25316   1.000
    Zr13    Zr   0.85444   0.49750   0.75312   1.000
    Zr14    Zr   0.85447   0.99745   0.25314   1.000
    Zr15    Zr   0.85442   0.99744   0.75321   1.000
    N16     N    0.37196   0.77370   0.19487   1.000
    N17     N    0.87193   0.77375   0.69487   1.000
    N18     N    0.37190   0.27370   0.19486   1.000
    N19     N    0.62822   0.72636   0.30509   1.000
    N20     N    0.37192   0.77374   0.69488   1.000
    N21     N    0.37186   0.27371   0.69484   1.000
    N22     N    0.75005   0.25005   0.50002   1.000
    N23     N    0.12818   0.72637   0.80510   1.000
    N24     N    0.87187   0.27371   0.69483   1.000
    N25     N    0.12812   0.22636   0.80511   1.000
    N26     N    0.75004   0.75003   0.49995   1.000
    N27     N    0.75003   0.74999   0.00001   1.000
    N28     N    0.12816   0.22632   0.30510   1.000
    N29     N    0.25005   0.25005   0.49996   1.000
    N30     N    0.25006   0.25008   0.99992   1.000
    N31     N    0.87191   0.27370   0.19470   1.000
    N32     N    0.75007   0.25009   0.99995   1.000
    N33     N    0.25002   0.74999   0.00001   1.000
    N34     N    0.25003   0.75002   0.49995   1.000
    N35     N    0.87197   0.77370   0.19486   1.000
    N36     N    0.12822   0.72636   0.30509   1.000
    N37     N    0.62817   0.22632   0.30510   1.000
    N38     N    0.62813   0.22636   0.80510   1.000
    N39     N    0.62819   0.72637   0.80510   1.000
    C40     C    0.25697   0.42184   0.20796   1.000
    O41     O    0.29602   0.37248   0.20263   1.000
    O42     O    0.29089   0.44451   0.22330   1.000
    C43     C    0.52202   0.39575   0.28476   1.000
    O44     O    0.55766   0.33824   0.29239   1.000
    O45     O    0.46662   0.42060   0.27475   1.000
    O46     O    0.56326   0.42836   0.27640   1.000
    C47     C    0.75121   0.39410   0.35745   1.000
    O48     O    0.75084   0.34559   0.40550   1.000
    O49     O    0.79125   0.42226   0.33005   1.000
    O50     O    0.71061   0.42321   0.32681   1.000
    C51     C    0.25121   0.39410   0.35746   1.000
    O52     O    0.25083   0.34559   0.40549   1.000
    O53     O    0.29124   0.42226   0.33006   1.000
    O54     O    0.21060   0.42320   0.32682   1.000
    C55     C    0.24315   0.57817   0.29175   1.000
    O56     O    0.20409   0.62755   0.29710   1.000
    O57     O    0.20922   0.55550   0.27657   1.000
    C58     C    0.02202   0.39575   0.28476   1.000
    O59     O    0.05766   0.33824   0.29239   1.000
    O60     O    0.96662   0.42060   0.27475   1.000
    O61     O    0.06325   0.42836   0.27640   1.000
    C62     C    0.75698   0.42185   0.20795   1.000
    O63     O    0.79090   0.44451   0.22329   1.000
    O64     O    0.79603   0.37249   0.20259   1.000
    C65     C    0.74315   0.57818   0.29205   1.000
    O66     O    0.70923   0.55551   0.27672   1.000
    O67     O    0.70410   0.62755   0.29736   1.000
    C68     C    0.24891   0.60591   0.14257   1.000
    O69     O    0.20887   0.57774   0.16997   1.000
    O70     O    0.24927   0.65443   0.09453   1.000
    O71     O    0.28951   0.57680   0.17320   1.000
    C72     C    0.47809   0.60424   0.21523   1.000
    O73     O    0.44246   0.66176   0.20759   1.000
    O74     O    0.53350   0.57940   0.22525   1.000
    O75     O    0.43686   0.57164   0.22358   1.000
    C76     C    0.97810   0.60424   0.21526   1.000
    O77     O    0.94246   0.66176   0.20760   1.000
    O78     O    0.03350   0.57940   0.22527   1.000
    O79     O    0.93686   0.57164   0.22361   1.000
    C80     C    0.74892   0.60591   0.14256   1.000
    O81     O    0.74928   0.65443   0.09452   1.000
    O82     O    0.78952   0.57681   0.17319   1.000
    O83     O    0.70888   0.57775   0.16996   1.000
    C84     C    0.25694   0.42190   0.70792   1.000
    O85     O    0.29600   0.37252   0.70261   1.000
    O86     O    0.29087   0.44456   0.72326   1.000
    C87     C    0.52199   0.39582   0.78473   1.000
    O88     O    0.55763   0.33830   0.79237   1.000
    O89     O    0.56323   0.42842   0.77636   1.000
    O90     O    0.46659   0.42067   0.77472   1.000
    C91     C    0.47807   0.60431   0.71520   1.000
    O92     O    0.53347   0.57946   0.72522   1.000
    O93     O    0.44243   0.66182   0.70757   1.000
    O94     O    0.43683   0.57171   0.72357   1.000
    C95     C    0.75119   0.39416   0.85741   1.000
    O96     O    0.75082   0.34565   0.90545   1.000
    O97     O    0.79122   0.42233   0.83001   1.000
    O98     O    0.71059   0.42327   0.82677   1.000
    C99     C    0.25118   0.39416   0.85741   1.000
    O100    O    0.25081   0.34564   0.90539   1.000
    O101    O    0.29122   0.42233   0.83001   1.000
    O102    O    0.21058   0.42326   0.82678   1.000
    C103    C    0.02199   0.39582   0.78473   1.000
    O104    O    0.05763   0.33830   0.79238   1.000
    O105    O    0.96659   0.42066   0.77472   1.000
    O106    O    0.06323   0.42842   0.77636   1.000
    C107    C    0.24312   0.57822   0.79199   1.000
    O108    O    0.20406   0.62759   0.79732   1.000
    O109    O    0.20920   0.55556   0.77665   1.000
    C110    C    0.74313   0.57823   0.79200   1.000
    O111    O    0.70920   0.55556   0.77667   1.000
    O112    O    0.70407   0.62759   0.79732   1.000
    C113    C    0.75695   0.42190   0.70792   1.000
    O114    O    0.79087   0.44457   0.72325   1.000
    O115    O    0.79600   0.37252   0.70260   1.000
    C116    C    0.97807   0.60431   0.71523   1.000
    O117    O    0.03347   0.57946   0.72523   1.000
    O118    O    0.94243   0.66182   0.70759   1.000
    O119    O    0.93684   0.57171   0.72358   1.000
    C120    C    0.24889   0.60597   0.64252   1.000
    O121    O    0.24926   0.65448   0.59447   1.000
    O122    O    0.28949   0.57687   0.67315   1.000
    O123    O    0.20885   0.57781   0.66992   1.000
    C124    C    0.74889   0.60597   0.64252   1.000
    O125    O    0.74927   0.65448   0.59447   1.000
    O126    O    0.78949   0.57687   0.67315   1.000
    O127    O    0.70885   0.57781   0.66992   1.000
    C128    C    0.25706   0.92193   0.20784   1.000
    O129    O    0.29611   0.87254   0.20256   1.000
    O130    O    0.29097   0.94457   0.22320   1.000
    C131    C    0.47807   0.10428   0.21517   1.000
    O132    O    0.53349   0.07945   0.22516   1.000
    O133    O    0.43684   0.07167   0.22355   1.000
    O134    O    0.44242   0.16179   0.20755   1.000
    C135    C    0.24307   0.07814   0.29203   1.000
    O136    O    0.20402   0.12751   0.29735   1.000
    O137    O    0.20917   0.05550   0.27668   1.000
    C138    C    0.75118   0.89408   0.35738   1.000
    O139    O    0.75081   0.84557   0.40542   1.000
    O140    O    0.71060   0.92320   0.32674   1.000
    O141    O    0.79122   0.92226   0.33000   1.000
    C142    C    0.25118   0.89408   0.35736   1.000
    O143    O    0.25080   0.84557   0.40542   1.000
    O144    O    0.29122   0.92226   0.32996   1.000
    O145    O    0.21059   0.92320   0.32673   1.000
    C146    C    0.02207   0.89580   0.28472   1.000
    O147    O    0.05771   0.83829   0.29237   1.000
    O148    O    0.96665   0.92064   0.27473   1.000
    O149    O    0.06330   0.92842   0.27632   1.000
    C150    C    0.75707   0.92193   0.20782   1.000
    O151    O    0.79097   0.94457   0.22317   1.000
    O152    O    0.79612   0.87254   0.20254   1.000
    C153    C    0.52207   0.89581   0.28472   1.000
    O154    O    0.55772   0.83829   0.29237   1.000
    O155    O    0.56330   0.92842   0.27633   1.000
    O156    O    0.46665   0.92064   0.27472   1.000
    C157    C    0.24895   0.10599   0.14251   1.000
    O158    O    0.28954   0.07688   0.17315   1.000
    O159    O    0.24931   0.15451   0.09446   1.000
    O160    O    0.20891   0.07782   0.16989   1.000
    C161    C    0.74308   0.07814   0.29176   1.000
    O162    O    0.70403   0.12751   0.29722   1.000
    O163    O    0.70918   0.05551   0.27632   1.000
    C164    C    0.74896   0.10600   0.14251   1.000
    O165    O    0.74932   0.15452   0.09447   1.000
    O166    O    0.78955   0.07688   0.17315   1.000
    O167    O    0.70892   0.07782   0.16989   1.000
    C168    C    0.97807   0.10428   0.21515   1.000
    O169    O    0.94242   0.16179   0.20749   1.000
    O170    O    0.93684   0.07167   0.22354   1.000
    O171    O    0.03349   0.07945   0.22514   1.000
    C172    C    0.25701   0.92193   0.70791   1.000
    O173    O    0.29606   0.87255   0.70260   1.000
    O174    O    0.29091   0.94457   0.72327   1.000
    C175    C    0.24301   0.07814   0.79212   1.000
    O176    O    0.20397   0.12753   0.79741   1.000
    O177    O    0.20911   0.05550   0.77676   1.000
    C178    C    0.47802   0.10427   0.71523   1.000
    O179    O    0.53344   0.07944   0.72522   1.000
    O180    O    0.44237   0.16178   0.70758   1.000
    O181    O    0.43679   0.07166   0.72362   1.000
    C182    C    0.25112   0.89407   0.85746   1.000
    O183    O    0.21054   0.92319   0.82682   1.000
    O184    O    0.25076   0.84555   0.90550   1.000
    O185    O    0.29117   0.92225   0.83007   1.000
    C186    C    0.75113   0.89407   0.85746   1.000
    O187    O    0.75077   0.84556   0.90550   1.000
    O188    O    0.71054   0.92319   0.82681   1.000
    O189    O    0.79117   0.92225   0.83007   1.000
    C190    C    0.02202   0.89579   0.78479   1.000
    O191    O    0.05767   0.83829   0.79242   1.000
    O192    O    0.96660   0.92063   0.77480   1.000
    O193    O    0.06325   0.92841   0.77641   1.000
    C194    C    0.52202   0.89580   0.78479   1.000
    O195    O    0.55767   0.83829   0.79242   1.000
    O196    O    0.46660   0.92063   0.77480   1.000
    O197    O    0.56325   0.92841   0.77640   1.000
    C198    C    0.24890   0.10599   0.64258   1.000
    O199    O    0.28949   0.07687   0.67322   1.000
    O200    O    0.20886   0.07781   0.66996   1.000
    O201    O    0.24927   0.15450   0.59445   1.000
    C202    C    0.75702   0.92193   0.70791   1.000
    O203    O    0.79607   0.87256   0.70260   1.000
    O204    O    0.79092   0.94457   0.72327   1.000
    C205    C    0.97802   0.10427   0.71523   1.000
    O206    O    0.94238   0.16179   0.70758   1.000
    O207    O    0.03344   0.07944   0.72522   1.000
    O208    O    0.93679   0.07166   0.72362   1.000
    C209    C    0.74891   0.10599   0.64258   1.000
    O210    O    0.74928   0.15450   0.59454   1.000
    O211    O    0.70887   0.07781   0.66996   1.000
    O212    O    0.78949   0.07687   0.67322   1.000
    C213    C    0.74302   0.07814   0.79210   1.000
    O214    O    0.70398   0.12753   0.79739   1.000
    O215    O    0.70912   0.05550   0.77674   1.000
    O216    O    0.22727   0.44416   0.21816   1.000
    O217    O    0.77282   0.55591   0.78180   1.000
    O218    O    0.72730   0.94425   0.71811   1.000
    O219    O    0.22725   0.44422   0.71813   1.000
    O220    O    0.22730   0.94424   0.71812   1.000
    O221    O    0.27284   0.55585   0.28170   1.000
    O222    O    0.77285   0.55585   0.28185   1.000
    O223    O    0.72736   0.94425   0.21803   1.000
    O224    O    0.72728   0.44417   0.21816   1.000
    O225    O    0.27281   0.55590   0.78179   1.000
    O226    O    0.77274   0.05583   0.78190   1.000
    O227    O    0.22735   0.94424   0.21805   1.000
    O228    O    0.72725   0.44422   0.71812   1.000
    O229    O    0.77279   0.05583   0.28159   1.000
    O230    O    0.27273   0.05582   0.78192   1.000
    O231    O    0.27278   0.05582   0.28183   1.000
loop_
    _geom_bond_atom_site_label_1
    _geom_bond_atom_site_label_2
    _geom_bond_distance
    _geom_bond_site_symmetry_2
    _ccdc_geom_bond_type
    C40    O41       1.11687      .   S
    N18    O41       2.18753      .   S
    C40    O42       1.17973      .   S
    Zr8    O42       2.41214      .   S
    C43    O44       1.11210      .   S
    N37    O44       2.18553      .   S
    C43    O45       1.04313      .   S
    Zr8    O45       2.19724      .   S
    C43    O46       1.14288      .   S
    Zr6    O46       2.33955      .   S
    C47    O48       1.11063      .   S
    N22    O48       2.18581      .   S
    C47    O49       1.02362      .   S
    Zr12   O49       2.17169      .   S
    C47    O50       1.03807      .   S
    Zr6    O50       2.19031      .   S
    C51    O52       1.11039      .   S
    N29    O52       2.18505      .   S
    C51    O53       1.02364      .   S
    Zr8    O53       2.17168      .   S
    C51    O54       1.03803      .   S
    Zr2    O54       2.19025      .   S
    C55    O56       1.11732      .   S
    N36    O56       2.19048      .   S
    C55    O57       1.17698      .   S
    Zr2    O57       2.40934      .   S
    C58    O59       1.11210      .   S
    N28    O59       2.18554      .   S
    C58    O60       1.04311  1_455   S
    Zr12   O60       2.19722      .   S
    C58    O61       1.14289      .   S
    Zr2    O61       2.33951      .   S
    C62    O63       1.17966      .   S
    Zr12   O63       2.41205      .   S
    C62    O64       1.11735      .   S
    N31    O64       2.18890      .   S
    C65    O66       1.17975      .   S
    Zr6    O66       2.41224      .   S
    C65    O67       1.11686      .   S
    N19    O67       2.18745      .   S
    C68    O69       1.02371      .   S
    Zr2    O69       2.17178      .   S
    C68    O70       1.11062      .   S
    N33    O70       2.18578      .   S
    C68    O71       1.03800      .   S
    Zr8    O71       2.19034      .   S
    C72    O73       1.11220      .   S
    N16    O73       2.18564      .   S
    C72    O74       1.04322      .   S
    Zr6    O74       2.19727      .   S
    C72    O75       1.14288      .   S
    Zr8    O75       2.33922      .   S
    C76    O77       1.11208      .   S
    N35    O77       2.18547      .   S
    C76    O78       1.04311  1_655   S
    Zr2    O78       2.19721      .   S
    C76    O79       1.14284      .   S
    Zr12   O79       2.33942      .   S
    C80    O81       1.11061      .   S
    N27    O81       2.18568      .   S
    C80    O82       1.03804      .   S
    Zr12   O82       2.19027      .   S
    C80    O83       1.02373      .   S
    Zr6    O83       2.17178      .   S
    C84    O85       1.11699      .   S
    N21    O85       2.18785      .   S
    C84    O86       1.17971      .   S
    Zr9    O86       2.41212      .   S
    C87    O88       1.11211      .   S
    N38    O88       2.18556      .   S
    C87    O89       1.14289      .   S
    Zr7    O89       2.33955      .   S
    C87    O90       1.04314      .   S
    Zr9    O90       2.19726      .   S
    C91    O92       1.04320      .   S
    Zr7    O92       2.19727      .   S
    C91    O93       1.11212      .   S
    N20    O93       2.18568      .   S
    C91    O94       1.14276      .   S
    Zr9    O94       2.33940      .   S
    C95    O96       1.11059      .   S
    N32    O96       2.18569      .   S
    C95    O97       1.02365      .   S
    Zr13   O97       2.17168      .   S
    C95    O98       1.03804      .   S
    Zr7    O98       2.19026      .   S
    C99    O100      1.10966      .   S
    N30    O100      2.18606      .   S
    C99    O101      1.02367      .   S
    Zr9    O101      2.17172      .   S
    C99    O102      1.03801      .   S
    Zr3    O102      2.19030      .   S
    C103   O104      1.11209      .   S
    N25    O104      2.18551      .   S
    C103   O105      1.04310  1_455   S
    Zr13   O105      2.19721      .   S
    C103   O106      1.14287      .   S
    Zr3    O106      2.33951      .   S
    C107   O108      1.11687      .   S
    N23    O108      2.18766      .   S
    C107   O109      1.17986      .   S
    Zr3    O109      2.41151      .   S
    C110   O111      1.17952      .   S
    Zr7    O111      2.41194      .   S
    C110   O112      1.11688      .   S
    N39    O112      2.18767      .   S
    C113   O114      1.17973      .   S
    Zr13   O114      2.41213      .   S
    C113   O115      1.11698      .   S
    N24    O115      2.18787      .   S
    C116   O117      1.04310  1_655   S
    Zr3    O117      2.19719      .   S
    C116   O118      1.11208      .   S
    N17    O118      2.18550      .   S
    C116   O119      1.14283      .   S
    Zr13   O119      2.33942      .   S
    C120   O121      1.11063      .   S
    N34    O121      2.18580      .   S
    C120   O122      1.03802      .   S
    Zr9    O122      2.19028      .   S
    C120   O123      1.02368      .   S
    Zr3    O123      2.17175      .   S
    C124   O125      1.11064      .   S
    N26    O125      2.18584      .   S
    C124   O126      1.03800      .   S
    Zr13   O126      2.19025      .   S
    C124   O127      1.02368      .   S
    Zr7    O127      2.17176      .   S
    C128   O129      1.11678      .   S
    N16    O129      2.18728      .   S
    C128   O130      1.17949      .   S
    Zr10   O130      2.41139      .   S
    C131   O132      1.04331      .   S
    Zr4    O132      2.19756      .   S
    C131   O133      1.14272      .   S
    Zr10   O133      2.33902  1_565   S
    C131   O134      1.11212      .   S
    N18    O134      2.18556      .   S
    C135   O136      1.11696      .   S
    N28    O136      2.18749      .   S
    C135   O137      1.17913      .   S
    Zr0    O137      2.41103      .   S
    C138   O139      1.11067      .   S
    N26    O139      2.18593      .   S
    C138   O140      1.03789      .   S
    Zr4    O140      2.19048  1_545   S
    C138   O141      1.02379      .   S
    Zr14   O141      2.17181      .   S
    C142   O143      1.11090      .   S
    N34    O143      2.18607      .   S
    C142   O144      1.02386      .   S
    Zr10   O144      2.17153      .   S
    C142   O145      1.03767      .   S
    Zr0    O145      2.19013  1_545   S
    C146   O147      1.11209      .   S
    N36    O147      2.18556      .   S
    C146   O148      1.04323  1_455   S
    Zr14   O148      2.19751      .   S
    C146   O149      1.14268      .   S
    Zr0    O149      2.33907  1_545   S
    C150   O151      1.17931      .   S
    Zr14   O151      2.41200      .   S
    C150   O152      1.11666      .   S
    N35    O152      2.18723      .   S
    C153   O154      1.11209      .   S
    N19    O154      2.18557      .   S
    C153   O155      1.14279      .   S
    Zr4    O155      2.33899  1_545   S
    C153   O156      1.04335      .   S
    Zr10   O156      2.19750      .   S
    C157   O158      1.03796      .   S
    Zr10   O158      2.19054  1_565   S
    C157   O159      1.11075      .   S
    N30    O159      2.18623  1_556   S
    C157   O160      1.02379      .   S
    Zr0    O160      2.17182      .   S
    C161   O162      1.11860      .   S
    N37    O162      2.18907      .   S
    C161   O163      1.18080      .   S
    Zr4    O163      2.40453      .   S
    C164   O165      1.11064      .   S
    N32    O165      2.18582  1_556   S
    C164   O166      1.03795      .   S
    Zr14   O166      2.19050  1_565   S
    C164   O167      1.02379      .   S
    Zr4    O167      2.17178      .   S
    C168   O169      1.11191      .   S
    N31    O169      2.18476      .   S
    C168   O170      1.14264      .   S
    Zr14   O170      2.33893  1_565   S
    C168   O171      1.04327  1_655   S
    Zr0    O171      2.19761      .   S
    C172   O173      1.11678      .   S
    N20    O173      2.18732      .   S
    C172   O174      1.17943      .   S
    Zr11   O174      2.41136      .   S
    C175   O176      1.11680      .   S
    N25    O176      2.18733      .   S
    C175   O177      1.17942      .   S
    Zr1    O177      2.41126      .   S
    C178   O179      1.04329      .   S
    Zr5    O179      2.19753      .   S
    C178   O180      1.11206      .   S
    N21    O180      2.18535      .   S
    C178   O181      1.14275      .   S
    Zr11   O181      2.33904  1_565   S
    C182   O183      1.03790      .   S
    Zr1    O183      2.19044  1_545   S
    C182   O184      1.11064      .   S
    N33    O184      2.18578  1_554   S
    C182   O185      1.02384      .   S
    Zr11   O185      2.17188      .   S
    C186   O187      1.11060      .   S
    N27    O187      2.18575  1_554   S
    C186   O188      1.03804      .   S
    Zr5    O188      2.19086  1_545   S
    C186   O189      1.02383      .   S
    Zr15   O189      2.17186      .   S
    C190   O191      1.11215      .   S
    N23    O191      2.18565      .   S
    C190   O192      1.04328  1_455   S
    Zr15   O192      2.19752      .   S
    C190   O193      1.14272      .   S
    Zr1    O193      2.33893  1_545   S
    C194   O195      1.11215      .   S
    N39    O195      2.18561      .   S
    C194   O196      1.04331      .   S
    Zr11   O196      2.19757      .   S
    C194   O197      1.14269      .   S
    Zr5    O197      2.33890  1_545   S
    C198   O199      1.03797      .   S
    Zr11   O199      2.19048  1_565   S
    C198   O200      1.02379      .   S
    Zr1    O200      2.17185      .   S
    C198   O201      1.11205      .   S
    N29    O201      2.18530      .   S
    C202   O203      1.11681      .   S
    N17    O203      2.18740      .   S
    C202   O204      1.17943      .   S
    Zr15   O204      2.41134      .   S
    C205   O206      1.11206      .   S
    N24    O206      2.18534      .   S
    C205   O207      1.04330  1_655   S
    Zr1    O207      2.19755      .   S
    C205   O208      1.14273      .   S
    Zr15   O208      2.33897  1_565   S
    C209   O210      1.11064      .   S
    N22    O210      2.18582      .   S
    C209   O211      1.02375      .   S
    Zr5    O211      2.17163      .   S
    C209   O212      1.03796      .   S
    Zr15   O212      2.19046  1_565   S
    C213   O214      1.11681      .   S
    N38    O214      2.18746      .   S
    C213   O215      1.17935      .   S
    Zr5    O215      2.41147      .   S
    Zr2    O216      1.90283      .   S
    C40    O216      0.70250      .   S
    Zr13   O217      1.90262      .   S
    C110   O217      0.70233      .   S
    Zr5    O218      1.90306  1_545   S
    C202   O218      0.70255      .   S
    Zr3    O219      1.90276      .   S
    C84    O219      0.70248      .   S
    Zr1    O220      1.90334  1_545   S
    C172   O220      0.70264      .   S
    C55    O221      0.70040      .   S
    Zr8    O221      1.90066      .   S
    C65    O222      0.70249      .   S
    Zr12   O222      1.90280      .   S
    C150   O223      0.70270      .   S
    Zr4    O223      1.90369  1_545   S
    C62    O224      0.70248      .   S
    Zr6    O224      1.90281      .   S
    C107   O225      0.70246      .   S
    Zr9    O225      1.90249      .   S
    C213   O226      0.70252      .   S
    Zr15   O226      1.90319  1_565   S
    C128   O227      0.70270      .   S
    Zr0    O227      1.90341  1_545   S
    Zr7    O228      1.90284      .   S
    C113   O228      0.70250      .   S
    C161   O229      0.70210      .   S
    Zr14   O229      1.89963  1_565   S
    C175   O230      0.70267      .   S
    Zr11   O230      1.90341  1_565   S
    C135   O231      0.70260      .   S
    Zr10   O231      1.90300  1_565   S
