# CIF file generated by openbabel 2.4.90, see http://openbabel.sf.net
data_I
_chemical_name_common ''
_cell_length_a 14.132
_cell_length_b 18.093
_cell_length_c 19.553
_cell_angle_alpha 98.827
_cell_angle_beta 90.064
_cell_angle_gamma 90.027
_space_group_name_H-M_alt 'P 1'
_space_group_name_Hall 'P 1'
loop_
    _symmetry_equiv_pos_as_xyz
    x,y,z
loop_
    _atom_site_label
    _atom_site_type_symbol
    _atom_site_fract_x
    _atom_site_fract_y
    _atom_site_fract_z
    _atom_site_occupancy
    H0      H    0.89152   0.63130   0.39381   1.000
    H1      H    0.95183   0.71155   0.43438   1.000
    H2      H    0.92110   0.59692   0.26237   1.000
    H3      H    0.00413   0.54997   0.30869   1.000
    H4      H    0.47399   0.44208   0.09337   1.000
    H5      H    0.39793   0.46414   0.02876   1.000
    H6      H    0.55818   0.57452   0.16198   1.000
    H7      H    0.48548   0.50887   0.19232   1.000
    H8      H    0.89137   0.36805   0.10536   1.000
    H9      H    0.95214   0.28803   0.06501   1.000
    H10     H    0.92102   0.40314   0.23686   1.000
    H11     H    0.00435   0.44986   0.19066   1.000
    H12     H    0.47401   0.55791   0.40666   1.000
    H13     H    0.39798   0.53591   0.47122   1.000
    H14     H    0.55784   0.42553   0.33814   1.000
    H15     H    0.48511   0.49111   0.30771   1.000
    H16     H    0.10849   0.36860   0.60610   1.000
    H17     H    0.04810   0.28840   0.56552   1.000
    H18     H    0.07888   0.40305   0.73754   1.000
    H19     H    0.99584   0.44999   0.69122   1.000
    H20     H    0.52600   0.55797   0.90655   1.000
    H21     H    0.60206   0.53595   0.97119   1.000
    H22     H    0.44183   0.42548   0.83799   1.000
    H23     H    0.51448   0.49114   0.80765   1.000
    H24     H    0.10867   0.63189   0.89460   1.000
    H25     H    0.04795   0.71194   0.93495   1.000
    H26     H    0.07903   0.59684   0.76310   1.000
    H27     H    0.99570   0.55011   0.80929   1.000
    H28     H    0.52604   0.44210   0.59325   1.000
    H29     H    0.60210   0.46415   0.52873   1.000
    H30     H    0.44214   0.57445   0.66179   1.000
    H31     H    0.51486   0.50887   0.69222   1.000
    C32     C    0.96238   0.65682   0.40211   1.000
    C33     C    0.99343   0.59996   0.28370   1.000
    C34     C    0.40951   0.47336   0.08482   1.000
    C35     C    0.48412   0.56327   0.17398   1.000
    C36     C    0.96235   0.34280   0.09733   1.000
    C37     C    0.99339   0.39996   0.21571   1.000
    C38     C    0.40947   0.52666   0.41517   1.000
    C39     C    0.48377   0.43673   0.32607   1.000
    C40     C    0.03761   0.34313   0.59782   1.000
    C41     C    0.00000   0.40001   0.71620   1.000
    C42     C    0.59048   0.52670   0.91513   1.000
    C43     C    0.51588   0.43676   0.82000   1.000
    C44     C    0.03771   0.65717   0.90264   1.000
    C45     C    0.00000   0.60002   0.78425   1.000
    C46     C    0.59057   0.47337   0.58478   1.000
    C47     C    0.51621   0.56326   0.67388   1.000
loop_
    _geom_bond_atom_site_label_1
    _geom_bond_atom_site_label_2
    _geom_bond_distance
    _geom_bond_site_symmetry_2
    _ccdc_geom_bond_type
    H5     C34       1.09527      .   S
    H9     C36       1.09985      .   S
    C34    H4        1.09900      .   S
    C36    H8        1.10382      .   S
    H6     C35       1.09853      .   S
    C35    H7        1.09810      .   S
    H11    C37       1.10218  1_455   S
    C37    H10       1.10186      .   S
    H2     C33       1.10174      .   S
    C33    H3        1.10236  1_655   S
    H15    C39       1.09804      .   S
    C39    H14       1.09852      .   S
    H0     C32       1.10382      .   S
    C32    H1        1.09976      .   S
    H12    C38       1.09902      .   S
    C38    H13       1.09528      .   S
    H29    C46       1.09534      .   S
    H17    C40       1.09985      .   S
    C46    H28       1.09898      .   S
    C40    H16       1.10378      .   S
    H30    C47       1.09855      .   S
    C47    H31       1.09801      .   S
    H19    C41       1.09328  1_655   S
    C41    H18       1.18810      .   S
    H26    C45       1.18975      .   S
    C45    H27       1.09291  1_455   S
    H23    C43       1.04881      .   S
    C43    H22       1.13275      .   S
    H24    C44       1.10384      .   S
    C44    H25       1.09985      .   S
    H20    C42       1.09903      .   S
    C42    H21       1.09524      .   S
