# CIF file generated by openbabel 2.4.90, see http://openbabel.sf.net
data_I
_chemical_name_common ''
_cell_length_a 14.132
_cell_length_b 18.093
_cell_length_c 19.553
_cell_angle_alpha 98.827
_cell_angle_beta 90.064
_cell_angle_gamma 90.027
_space_group_name_H-M_alt 'P 1'
_space_group_name_Hall 'P 1'
loop_
    _symmetry_equiv_pos_as_xyz
    x,y,z
loop_
    _atom_site_label
    _atom_site_type_symbol
    _atom_site_fract_x
    _atom_site_fract_y
    _atom_site_fract_z
    _atom_site_occupancy
    H0      H    0.02260   0.92390   0.36497   1.000
    H1      H    0.94895   0.92822   0.24869   1.000
    H2      H    0.93455   0.69014   0.21160   1.000
    H3      H    0.34983   0.63942   0.90565   1.000
    H4      H    0.48585   0.72801   0.91779   1.000
    H5      H    0.56333   0.65548   0.10819   1.000
    H6      H    0.09103   0.70717   0.10218   1.000
    H7      H    0.07714   0.82775   0.05848   1.000
    H8      H    0.37834   0.85869   0.09523   1.000
    H9      H    0.37782   0.73968   0.14299   1.000
    H10     H    0.10406   0.90081   0.97722   1.000
    H11     H    0.11010   0.02346   0.93415   1.000
    H12     H    0.33822   0.09597   0.05899   1.000
    H13     H    0.34279   0.97692   0.10895   1.000
    H14     H    0.02252   0.07595   0.13551   1.000
    H15     H    0.94827   0.07201   0.25155   1.000
    H16     H    0.93330   0.31005   0.28765   1.000
    H17     H    0.34992   0.36054   0.59433   1.000
    H18     H    0.48577   0.27195   0.58222   1.000
    H19     H    0.56292   0.34454   0.39180   1.000
    H20     H    0.09075   0.29275   0.39782   1.000
    H21     H    0.07685   0.17209   0.44151   1.000
    H22     H    0.37792   0.14127   0.40481   1.000
    H23     H    0.37737   0.26028   0.35706   1.000
    H24     H    0.10393   0.09900   0.52276   1.000
    H25     H    0.11018   0.97638   0.56592   1.000
    H26     H    0.33802   0.90408   0.44100   1.000
    H27     H    0.34235   0.02308   0.39114   1.000
    H28     H    0.97747   0.07605   0.63000   1.000
    H29     H    0.05111   0.07177   0.75128   1.000
    H30     H    0.06544   0.30986   0.78831   1.000
    H31     H    0.65022   0.36063   0.09432   1.000
    H32     H    0.51423   0.27201   0.08218   1.000
    H33     H    0.43671   0.34455   0.89179   1.000
    H34     H    0.90901   0.29287   0.89784   1.000
    H35     H    0.92289   0.17226   0.94149   1.000
    H36     H    0.62169   0.14134   0.90471   1.000
    H37     H    0.62221   0.26039   0.85702   1.000
    H38     H    0.89598   0.09920   0.02272   1.000
    H39     H    0.88994   0.97655   0.06579   1.000
    H40     H    0.66179   0.90405   0.94097   1.000
    H41     H    0.65722   0.02310   0.89101   1.000
    H42     H    0.97754   0.92403   0.86446   1.000
    H43     H    0.05178   0.92798   0.74842   1.000
    H44     H    0.06677   0.68993   0.71233   1.000
    H45     H    0.65007   0.63949   0.40564   1.000
    H46     H    0.51419   0.72806   0.41774   1.000
    H47     H    0.43706   0.65548   0.60808   1.000
    H48     H    0.90925   0.70728   0.60222   1.000
    H49     H    0.92314   0.82790   0.55840   1.000
    H50     H    0.62208   0.85874   0.59517   1.000
    H51     H    0.62265   0.73978   0.64300   1.000
    C52     C    0.68784   0.17182   0.90276   1.000
    C53     C    0.68685   0.23936   0.87749   1.000
    C54     C    0.84203   0.05829   0.00305   1.000
    C55     C    0.83965   0.98996   0.02723   1.000
    H56     H    0.89604   0.90097   0.47710   1.000
    H57     H    0.88978   0.02358   0.43398   1.000
    H58     H    0.66197   0.09590   0.55873   1.000
    H59     H    0.65766   0.97692   0.60881   1.000
    C60     C    0.01992   0.80407   0.35427   1.000
    C61     C    0.00245   0.87254   0.33133   1.000
    C62     C    0.96291   0.87519   0.26657   1.000
    C63     C    0.94108   0.80843   0.22336   1.000
    C64     C    0.95470   0.74003   0.24692   1.000
    C65     C    0.99236   0.73687   0.31248   1.000
    C66     C    0.37588   0.59874   0.00171   1.000
    C67     C    0.39515   0.64444   0.95121   1.000
    C68     C    0.47025   0.69450   0.95803   1.000
    C69     C    0.52983   0.69798   0.01560   1.000
    C70     C    0.51324   0.65180   0.06560   1.000
    C71     C    0.43760   0.60104   0.06017   1.000
    C72     C    0.15334   0.74239   0.10010   1.000
    C73     C    0.14604   0.81029   0.07533   1.000
    C74     C    0.22717   0.85492   0.07301   1.000
    C75     C    0.31220   0.82822   0.09720   1.000
    C76     C    0.31318   0.76070   0.12251   1.000
    C77     C    0.15800   0.94172   0.99689   1.000
    C78     C    0.16039   0.00000   0.97271   1.000
    C79     C    0.28822   0.05074   0.04278   1.000
    C80     C    0.29048   0.98390   0.06951   1.000
    C81     C    0.22473   0.92724   0.04646   1.000
    C82     C    0.01976   0.19576   0.14579   1.000
    C83     C    0.00214   0.12739   0.16888   1.000
    C84     C    0.96228   0.12495   0.23351   1.000
    C85     C    0.94000   0.19181   0.27636   1.000
    C86     C    0.95379   0.26009   0.25262   1.000
    C87     C    0.99193   0.26304   0.18723   1.000
    C88     C    0.37579   0.40127   0.49830   1.000
    C89     C    0.39510   0.35552   0.54877   1.000
    C90     C    0.47013   0.30547   0.54197   1.000
    C91     C    0.52958   0.30202   0.48400   1.000
    C92     C    0.51292   0.34822   0.43440   1.000
    C93     C    0.43737   0.39897   0.43986   1.000
    C94     C    0.15301   0.25750   0.39983   1.000
    C95     C    0.14571   0.18960   0.42466   1.000
    C96     C    0.22681   0.14498   0.42699   1.000
    C97     C    0.31179   0.17172   0.40282   1.000
    C98     C    0.31276   0.23924   0.37751   1.000
    C99     C    0.15784   0.05813   0.50311   1.000
    C100    C    0.16036   0.98983   0.52736   1.000
    C101    C    0.28802   0.94927   0.45736   1.000
    C102    C    0.29014   0.01607   0.43057   1.000
    C103    C    0.22444   0.07267   0.45350   1.000
    C104    C    0.98009   0.19589   0.64567   1.000
    C105    C    0.99758   0.12742   0.66863   1.000
    C106    C    0.03714   0.12479   0.73338   1.000
    C107    C    0.05894   0.19156   0.77660   1.000
    C108    C    0.04530   0.25995   0.75301   1.000
    C109    C    0.00000   0.26309   0.68746   1.000
    C110    C    0.62413   0.40134   0.99828   1.000
    C111    C    0.60490   0.35560   0.04876   1.000
    C112    C    0.52980   0.30555   0.04190   1.000
    C113    C    0.47022   0.30205   0.98430   1.000
    C114    C    0.48679   0.34825   0.93437   1.000
    C115    C    0.56243   0.39901   0.93980   1.000
    C116    C    0.84669   0.25765   0.89984   1.000
    C117    C    0.85399   0.18974   0.92465   1.000
    C118    C    0.77286   0.14511   0.92695   1.000
    C119    C    0.71180   0.94928   0.95717   1.000
    C120    C    0.70954   0.01612   0.93045   1.000
    C121    C    0.77530   0.07278   0.95349   1.000
    C122    C    0.98029   0.80422   0.85418   1.000
    C123    C    0.99793   0.87259   0.83110   1.000
    C124    C    0.03777   0.87503   0.76646   1.000
    C125    C    0.06007   0.80817   0.72361   1.000
    C126    C    0.04626   0.73989   0.74735   1.000
    C127    C    0.00000   0.73694   0.81275   1.000
    C128    C    0.62422   0.59878   0.50168   1.000
    C129    C    0.60489   0.64451   0.45119   1.000
    C130    C    0.52985   0.69455   0.45799   1.000
    C131    C    0.47041   0.69800   0.51557   1.000
    C132    C    0.48707   0.65181   0.56553   1.000
    C133    C    0.56263   0.60106   0.56011   1.000
    C134    C    0.84701   0.74253   0.60020   1.000
    C135    C    0.85429   0.81040   0.57532   1.000
    C136    C    0.77320   0.85503   0.57299   1.000
    C137    C    0.68822   0.82830   0.59717   1.000
    C138    C    0.68725   0.76081   0.62253   1.000
    C139    C    0.84215   0.94185   0.49682   1.000
    C140    C    0.83961   0.00000   0.47255   1.000
    C141    C    0.71196   0.05071   0.54256   1.000
    C142    C    0.70986   0.98392   0.56937   1.000
    C143    C    0.77555   0.92731   0.54636   1.000
    N144    N    0.00823   0.66614   0.33636   1.000
    N145    N    0.42344   0.55345   0.11127   1.000
    N146    N    0.23558   0.71743   0.12345   1.000
    N147    N    0.22426   0.06377   0.99490   1.000
    N148    N    0.00809   0.33366   0.16323   1.000
    N149    N    0.42320   0.44656   0.38874   1.000
    N150    N    0.23520   0.28249   0.37657   1.000
    N151    N    0.22420   0.93617   0.50522   1.000
    N152    N    0.99175   0.33381   0.66357   1.000
    N153    N    0.57656   0.44660   0.88870   1.000
    N154    N    0.76445   0.28263   0.87658   1.000
    N155    N    0.77577   0.93624   0.00504   1.000
    N156    N    0.99197   0.66632   0.83674   1.000
    N157    N    0.57681   0.55346   0.61122   1.000
    N158    N    0.76481   0.71756   0.62348   1.000
    N159    N    0.77578   0.06380   0.49469   1.000
loop_
    _geom_bond_atom_site_label_1
    _geom_bond_atom_site_label_2
    _geom_bond_distance
    _geom_bond_site_symmetry_2
    _ccdc_geom_bond_type
    C66    C71       1.43252      .   S
    C66    C67       1.40855  1_554   S
    C54    H38       1.09015      .   S
    C54    C55       1.39019  1_545   S
    C54    C121      1.40470  1_554   S
    N155   C55       1.34783      .   S
    N155   C119      1.34732  1_554   S
    C69    C70       1.39995      .   S
    C69    C68       1.39864  1_554   S
    C55    H39       1.08976      .   S
    C112   C111      1.38786      .   S
    C112   H32       1.08801      .   S
    C112   C113      1.39902  1_554   S
    C79    H12       1.09045      .   S
    C79    C80       1.38941  1_545   S
    C79    N147      1.34737  1_554   S
    C81    C80       1.40492      .   S
    C81    C74       1.48035      .   S
    C81    C77       1.40476  1_554   S
    C111   H31       1.08894      .   S
    C111   C110      1.40854  1_554   S
    H7     C73       1.09006      .   S
    C71    C70       1.40216      .   S
    C71    N145      1.42974      .   S
    C70    H5        1.08655      .   S
    C80    H13       1.08899      .   S
    C74    C73       1.40673      .   S
    C74    C75       1.40373      .   S
    C73    C72       1.39170      .   S
    H8     C75       1.08877      .   S
    C75    C76       1.38671      .   S
    C72    H6        1.09119      .   S
    C72    N146      1.35123      .   S
    C76    N146      1.34882      .   S
    C76    H9        1.08892      .   S
    H14    C83       1.09044      .   S
    C82    C83       1.40268      .   S
    C82    C87       1.41115  1_455   S
    N148   C87       1.44525  1_455   S
    C83    C84       1.39106  1_455   S
    C87    C86       1.39664      .   S
    H2     C64       1.08674      .   S
    C63    C64       1.39850      .   S
    C63    C62       1.39788      .   S
    C84    H15       1.08847      .   S
    C84    C85       1.39799      .   S
    C64    C65       1.39668      .   S
    H1     C62       1.08840      .   S
    C86    C85       1.39846      .   S
    C86    H16       1.08666      .   S
    C62    C61       1.39104  1_655   S
    C65    N144      1.44544  1_655   S
    C65    C60       1.41122  1_655   S
    C61    C60       1.40274      .   S
    C61    H0        1.09043      .   S
    H23    C98       1.08885      .   S
    N150   C98       1.34880      .   S
    N150   C94       1.35078      .   S
    C98    C97       1.38674      .   S
    N149   C93       1.42990      .   S
    H27    C102      1.08905      .   S
    H19    C92       1.08707      .   S
    H20    C94       1.09106      .   S
    C94    C95       1.39238      .   S
    C97    H22       1.08880      .   S
    C97    C96       1.40376      .   S
    H45    C129      1.08889      .   S
    H46    C130      1.08724      .   S
    C95    C96       1.40681      .   S
    C95    H21       1.09007      .   S
    C96    C103      1.47973      .   S
    C102   C103      1.40463      .   S
    C102   C101      1.38942  1_545   S
    H57    C140      1.16316      .   S
    C92    C93       1.40202      .   S
    C92    C91       1.39396      .   S
    C93    C88       1.43267      .   S
    H26    C101      1.09114      .   S
    C129   C130      1.38794      .   S
    C129   C128      1.40854      .   S
    C103   C99       1.40578      .   S
    C101   N151      1.34729      .   S
    C130   C131      1.39918      .   S
    C140   N159      1.47718      .   S
    C140   C139      1.21933  1_545   S
    H56    C139      1.09058      .   S
    C91    C90       1.40535      .   S
    N159   C141      1.34734      .   S
    C139   C143      1.40471      .   S
    C88    C89       1.40848      .   S
    C128   C133      1.43260      .   S
    C99    H24       1.09024      .   S
    C99    C100      1.39034  1_545   S
    N151   C100      1.34777      .   S
    C131   C132      1.39946      .   S
    C100   H25       1.08982      .   S
    C90    C89       1.38794      .   S
    C90    H18       1.08734      .   S
    C141   H58       1.09049      .   S
    C141   C142      1.38939  1_545   S
    C143   C142      1.40493      .   S
    C143   C136      1.48047      .   S
    C89    H17       1.08905      .   S
    H49    C135      1.09042      .   S
    C133   C132      1.40201      .   S
    C133   N157      1.42988      .   S
    C132   H47       1.08642      .   S
    C142   H59       1.08907      .   S
    C136   C135      1.40682      .   S
    C136   C137      1.40377      .   S
    C135   C134      1.39230      .   S
    H50    C137      1.08880      .   S
    C137   C138      1.38666      .   S
    C134   H48       1.09108      .   S
    C134   N158      1.35079      .   S
    C138   N158      1.34878      .   S
    C138   H51       1.08891      .   S
    H28    C105      1.13978      .   S
    C104   C105      1.40276      .   S
    C104   C109      1.38553  1_655   S
    N152   C109      1.43263  1_655   S
    C105   C106      1.39091  1_655   S
    C109   C108      1.44099      .   S
    H44    C126      1.08656      .   S
    C125   C126      1.39847      .   S
    C125   C124      1.39807      .   S
    C106   H29       1.08847      .   S
    C106   C107      1.39798      .   S
    C126   C127      1.44507      .   S
    H43    C124      1.08849      .   S
    C108   C107      1.39861      .   S
    C108   H30       1.08665      .   S
    C124   C123      1.39107  1_455   S
    C127   N156      1.43161  1_455   S
    C127   C122      1.38335  1_455   S
    C123   C122      1.40264      .   S
    C123   H42       1.09039      .   S
    H37    C53       1.08890      .   S
    N154   C53       1.34882      .   S
    N154   C116      1.35070      .   S
    C53    C52       1.38666      .   S
    N153   C115      1.42967      .   S
    H41    C120      1.08909      .   S
    H33    C114      1.08632      .   S
    H34    C116      1.09102      .   S
    C116   C117      1.39238      .   S
    C52    H36       1.08880      .   S
    C52    C118      1.40375      .   S
    H3     C67       1.08897      .   S
    H4     C68       1.08721      .   S
    C117   C118      1.40672      .   S
    C117   H35       1.09005      .   S
    C118   C121      1.48039      .   S
    C120   C121      1.40491      .   S
    C120   C119      1.38933  1_545   S
    H11    C78       1.16230      .   S
    C114   C115      1.40221      .   S
    C114   C113      1.39911      .   S
    C115   C110      1.43271      .   S
    H40    C119      1.09043      .   S
    C67    C68       1.38785      .   S
    C78    N147      1.47608      .   S
    C78    C77       1.22051  1_545   S
    H10    C77       1.09014      .   S
