# CIF file generated by openbabel 2.4.90, see http://openbabel.sf.net
data_I
_chemical_name_common ''
_cell_length_a 14.132
_cell_length_b 18.093
_cell_length_c 19.553
_cell_angle_alpha 98.827
_cell_angle_beta 90.064
_cell_angle_gamma 90.027
_space_group_name_H-M_alt 'P 1'
_space_group_name_Hall 'P 1'
loop_
    _symmetry_equiv_pos_as_xyz
    x,y,z
loop_
    _atom_site_label
    _atom_site_type_symbol
    _atom_site_fract_x
    _atom_site_fract_y
    _atom_site_fract_z
    _atom_site_occupancy
    H0      H    0.02260   0.92390   0.36497   1.000
    H1      H    0.94895   0.92822   0.24869   1.000
    H2      H    0.93455   0.69014   0.21160   1.000
    H3      H    0.89152   0.63130   0.39381   1.000
    H4      H    0.95183   0.71155   0.43438   1.000
    H5      H    0.92110   0.59692   0.26237   1.000
    H6      H    0.00413   0.54997   0.30869   1.000
    H7      H    0.34983   0.63942   0.90565   1.000
    H8      H    0.48585   0.72801   0.91779   1.000
    H9      H    0.56333   0.65548   0.10819   1.000
    H10     H    0.47399   0.44208   0.09337   1.000
    H11     H    0.39793   0.46414   0.02876   1.000
    H12     H    0.55818   0.57452   0.16198   1.000
    H13     H    0.48548   0.50887   0.19232   1.000
    H14     H    0.09103   0.70717   0.10218   1.000
    H15     H    0.07714   0.82775   0.05848   1.000
    H16     H    0.37834   0.85869   0.09523   1.000
    H17     H    0.37782   0.73968   0.14299   1.000
    H18     H    0.10406   0.90081   0.97722   1.000
    H19     H    0.11010   0.02346   0.93415   1.000
    H20     H    0.33822   0.09597   0.05899   1.000
    H21     H    0.34279   0.97692   0.10895   1.000
    H22     H    0.02252   0.07595   0.13551   1.000
    H23     H    0.94827   0.07201   0.25155   1.000
    H24     H    0.93330   0.31005   0.28765   1.000
    H25     H    0.89137   0.36805   0.10536   1.000
    H26     H    0.95214   0.28803   0.06501   1.000
    H27     H    0.92102   0.40314   0.23686   1.000
    H28     H    0.00435   0.44986   0.19066   1.000
    H29     H    0.34992   0.36054   0.59433   1.000
    H30     H    0.48577   0.27195   0.58222   1.000
    H31     H    0.56292   0.34454   0.39180   1.000
    H32     H    0.47401   0.55791   0.40666   1.000
    H33     H    0.39798   0.53591   0.47122   1.000
    H34     H    0.55784   0.42553   0.33814   1.000
    H35     H    0.48511   0.49111   0.30771   1.000
    H36     H    0.09075   0.29275   0.39782   1.000
    H37     H    0.07685   0.17209   0.44151   1.000
    H38     H    0.37792   0.14127   0.40481   1.000
    H39     H    0.37737   0.26028   0.35706   1.000
    H40     H    0.10393   0.09900   0.52276   1.000
    H41     H    0.11018   0.97638   0.56592   1.000
    H42     H    0.33802   0.90408   0.44100   1.000
    H43     H    0.34235   0.02308   0.39114   1.000
    H44     H    0.97747   0.07605   0.63000   1.000
    H45     H    0.05111   0.07177   0.75128   1.000
    H46     H    0.06544   0.30986   0.78831   1.000
    H47     H    0.10849   0.36860   0.60610   1.000
    H48     H    0.04810   0.28840   0.56552   1.000
    H49     H    0.07888   0.40305   0.73754   1.000
    H50     H    0.99584   0.44999   0.69122   1.000
    H51     H    0.65022   0.36063   0.09432   1.000
    H52     H    0.51423   0.27201   0.08218   1.000
    H53     H    0.43671   0.34455   0.89179   1.000
    H54     H    0.52600   0.55797   0.90655   1.000
    H55     H    0.60206   0.53595   0.97119   1.000
    H56     H    0.44183   0.42548   0.83799   1.000
    H57     H    0.51448   0.49114   0.80765   1.000
    H58     H    0.90901   0.29287   0.89784   1.000
    H59     H    0.92289   0.17226   0.94149   1.000
    H60     H    0.62169   0.14134   0.90471   1.000
    H61     H    0.62221   0.26039   0.85702   1.000
    H62     H    0.89598   0.09920   0.02272   1.000
    H63     H    0.88994   0.97655   0.06579   1.000
    H64     H    0.66179   0.90405   0.94097   1.000
    H65     H    0.65722   0.02310   0.89101   1.000
    H66     H    0.97754   0.92403   0.86446   1.000
    H67     H    0.05178   0.92798   0.74842   1.000
    H68     H    0.06677   0.68993   0.71233   1.000
    H69     H    0.10867   0.63189   0.89460   1.000
    H70     H    0.04795   0.71194   0.93495   1.000
    H71     H    0.07903   0.59684   0.76310   1.000
    H72     H    0.99570   0.55011   0.80929   1.000
    H73     H    0.65007   0.63949   0.40564   1.000
    H74     H    0.51419   0.72806   0.41774   1.000
    H75     H    0.43706   0.65548   0.60808   1.000
    H76     H    0.52604   0.44210   0.59325   1.000
    H77     H    0.60210   0.46415   0.52873   1.000
    H78     H    0.44214   0.57445   0.66179   1.000
    H79     H    0.51486   0.50887   0.69222   1.000
    H80     H    0.90925   0.70728   0.60222   1.000
    H81     H    0.92314   0.82790   0.55840   1.000
    H82     H    0.62208   0.85874   0.59517   1.000
    H83     H    0.62265   0.73978   0.64300   1.000
    C84     C    0.68784   0.17182   0.90276   1.000
    C85     C    0.68685   0.23936   0.87749   1.000
    C86     C    0.84203   0.05829   0.00305   1.000
    C87     C    0.83965   0.98996   0.02723   1.000
    H88     H    0.89604   0.90097   0.47710   1.000
    H89     H    0.88978   0.02358   0.43398   1.000
    H90     H    0.66197   0.09590   0.55873   1.000
    H91     H    0.65766   0.97692   0.60881   1.000
    C92     C    0.01992   0.80407   0.35427   1.000
    C93     C    0.00245   0.87254   0.33133   1.000
    C94     C    0.96291   0.87519   0.26657   1.000
    C95     C    0.94108   0.80843   0.22336   1.000
    C96     C    0.95470   0.74003   0.24692   1.000
    C97     C    0.99236   0.73687   0.31248   1.000
    C98     C    0.96238   0.65682   0.40211   1.000
    C99     C    0.99343   0.59996   0.28370   1.000
    C100    C    0.37588   0.59874   0.00171   1.000
    C101    C    0.39515   0.64444   0.95121   1.000
    C102    C    0.47025   0.69450   0.95803   1.000
    C103    C    0.52983   0.69798   0.01560   1.000
    C104    C    0.51324   0.65180   0.06560   1.000
    C105    C    0.43760   0.60104   0.06017   1.000
    C106    C    0.40951   0.47336   0.08482   1.000
    C107    C    0.48412   0.56327   0.17398   1.000
    C108    C    0.15334   0.74239   0.10010   1.000
    C109    C    0.14604   0.81029   0.07533   1.000
    C110    C    0.22717   0.85492   0.07301   1.000
    C111    C    0.31220   0.82822   0.09720   1.000
    C112    C    0.31318   0.76070   0.12251   1.000
    C113    C    0.15800   0.94172   0.99689   1.000
    C114    C    0.16039   0.00000   0.97271   1.000
    C115    C    0.28822   0.05074   0.04278   1.000
    C116    C    0.29048   0.98390   0.06951   1.000
    C117    C    0.22473   0.92724   0.04646   1.000
    C118    C    0.01976   0.19576   0.14579   1.000
    C119    C    0.00214   0.12739   0.16888   1.000
    C120    C    0.96228   0.12495   0.23351   1.000
    C121    C    0.94000   0.19181   0.27636   1.000
    C122    C    0.95379   0.26009   0.25262   1.000
    C123    C    0.99193   0.26304   0.18723   1.000
    C124    C    0.96235   0.34280   0.09733   1.000
    C125    C    0.99339   0.39996   0.21571   1.000
    C126    C    0.37579   0.40127   0.49830   1.000
    C127    C    0.39510   0.35552   0.54877   1.000
    C128    C    0.47013   0.30547   0.54197   1.000
    C129    C    0.52958   0.30202   0.48400   1.000
    C130    C    0.51292   0.34822   0.43440   1.000
    C131    C    0.43737   0.39897   0.43986   1.000
    C132    C    0.40947   0.52666   0.41517   1.000
    C133    C    0.48377   0.43673   0.32607   1.000
    C134    C    0.15301   0.25750   0.39983   1.000
    C135    C    0.14571   0.18960   0.42466   1.000
    C136    C    0.22681   0.14498   0.42699   1.000
    C137    C    0.31179   0.17172   0.40282   1.000
    C138    C    0.31276   0.23924   0.37751   1.000
    C139    C    0.15784   0.05813   0.50311   1.000
    C140    C    0.16036   0.98983   0.52736   1.000
    C141    C    0.28802   0.94927   0.45736   1.000
    C142    C    0.29014   0.01607   0.43057   1.000
    C143    C    0.22444   0.07267   0.45350   1.000
    C144    C    0.98009   0.19589   0.64567   1.000
    C145    C    0.99758   0.12742   0.66863   1.000
    C146    C    0.03714   0.12479   0.73338   1.000
    C147    C    0.05894   0.19156   0.77660   1.000
    C148    C    0.04530   0.25995   0.75301   1.000
    C149    C    0.00000   0.26309   0.68746   1.000
    C150    C    0.03761   0.34313   0.59782   1.000
    C151    C    0.00000   0.40001   0.71620   1.000
    C152    C    0.62413   0.40134   0.99828   1.000
    C153    C    0.60490   0.35560   0.04876   1.000
    C154    C    0.52980   0.30555   0.04190   1.000
    C155    C    0.47022   0.30205   0.98430   1.000
    C156    C    0.48679   0.34825   0.93437   1.000
    C157    C    0.56243   0.39901   0.93980   1.000
    C158    C    0.59048   0.52670   0.91513   1.000
    C159    C    0.51588   0.43676   0.82000   1.000
    C160    C    0.84669   0.25765   0.89984   1.000
    C161    C    0.85399   0.18974   0.92465   1.000
    C162    C    0.77286   0.14511   0.92695   1.000
    C163    C    0.71180   0.94928   0.95717   1.000
    C164    C    0.70954   0.01612   0.93045   1.000
    C165    C    0.77530   0.07278   0.95349   1.000
    C166    C    0.98029   0.80422   0.85418   1.000
    C167    C    0.99793   0.87259   0.83110   1.000
    C168    C    0.03777   0.87503   0.76646   1.000
    C169    C    0.06007   0.80817   0.72361   1.000
    C170    C    0.04626   0.73989   0.74735   1.000
    C171    C    0.00000   0.73694   0.81275   1.000
    C172    C    0.03771   0.65717   0.90264   1.000
    C173    C    0.00000   0.60002   0.78425   1.000
    C174    C    0.62422   0.59878   0.50168   1.000
    C175    C    0.60489   0.64451   0.45119   1.000
    C176    C    0.52985   0.69455   0.45799   1.000
    C177    C    0.47041   0.69800   0.51557   1.000
    C178    C    0.48707   0.65181   0.56553   1.000
    C179    C    0.56263   0.60106   0.56011   1.000
    C180    C    0.59057   0.47337   0.58478   1.000
    C181    C    0.51621   0.56326   0.67388   1.000
    C182    C    0.84701   0.74253   0.60020   1.000
    C183    C    0.85429   0.81040   0.57532   1.000
    C184    C    0.77320   0.85503   0.57299   1.000
    C185    C    0.68822   0.82830   0.59717   1.000
    C186    C    0.68725   0.76081   0.62253   1.000
    C187    C    0.84215   0.94185   0.49682   1.000
    C188    C    0.83961   0.00000   0.47255   1.000
    C189    C    0.71196   0.05071   0.54256   1.000
    C190    C    0.70986   0.98392   0.56937   1.000
    C191    C    0.77555   0.92731   0.54636   1.000
    N192    N    0.00823   0.66614   0.33636   1.000
    N193    N    0.42344   0.55345   0.11127   1.000
    N194    N    0.23558   0.71743   0.12345   1.000
    N195    N    0.22426   0.06377   0.99490   1.000
    N196    N    0.00809   0.33366   0.16323   1.000
    N197    N    0.42320   0.44656   0.38874   1.000
    N198    N    0.23520   0.28249   0.37657   1.000
    N199    N    0.22420   0.93617   0.50522   1.000
    N200    N    0.99175   0.33381   0.66357   1.000
    N201    N    0.57656   0.44660   0.88870   1.000
    N202    N    0.76445   0.28263   0.87658   1.000
    N203    N    0.77577   0.93624   0.00504   1.000
    N204    N    0.99197   0.66632   0.83674   1.000
    N205    N    0.57681   0.55346   0.61122   1.000
    N206    N    0.76481   0.71756   0.62348   1.000
    N207    N    0.77578   0.06380   0.49469   1.000
loop_
    _geom_bond_atom_site_label_1
    _geom_bond_atom_site_label_2
    _geom_bond_distance
    _geom_bond_site_symmetry_2
    _ccdc_geom_bond_type
    C100   C105      1.43252      .   S
    C100   C101      1.40855  1_554   S
    C86    H62       1.09015      .   S
    C86    C87       1.39019  1_545   S
    C86    C165      1.40470  1_554   S
    N203   C87       1.34783      .   S
    N203   C163      1.34732  1_554   S
    C103   C104      1.39995      .   S
    C103   C102      1.39864  1_554   S
    C87    H63       1.08976      .   S
    H11    C106      1.09527      .   S
    C154   C153      1.38786      .   S
    C154   H52       1.08801      .   S
    C154   C155      1.39902  1_554   S
    C115   H20       1.09045      .   S
    C115   C116      1.38941  1_545   S
    C115   N195      1.34737  1_554   S
    C117   C116      1.40492      .   S
    C117   C110      1.48035      .   S
    C117   C113      1.40476  1_554   S
    C153   H51       1.08894      .   S
    C153   C152      1.40854  1_554   S
    H15    C109      1.09006      .   S
    C105   C104      1.40216      .   S
    C105   N193      1.42974      .   S
    H26    C124      1.09985      .   S
    C104   H9        1.08655      .   S
    C116   H21       1.08899      .   S
    C110   C109      1.40673      .   S
    C110   C111      1.40373      .   S
    C109   C108      1.39170      .   S
    C106   H10       1.09900      .   S
    C106   N193      1.47497      .   S
    H16    C111      1.08877      .   S
    C111   C112      1.38671      .   S
    C124   H25       1.10382      .   S
    C124   N196      1.47279  1_655   S
    C108   H14       1.09119      .   S
    C108   N194      1.35123      .   S
    N193   C107      1.48361      .   S
    C112   N194      1.34882      .   S
    C112   H17       1.08892      .   S
    H22    C119      1.09044      .   S
    C118   C119      1.40268      .   S
    C118   C123      1.41115  1_455   S
    H12    C107      1.09853      .   S
    N196   C123      1.44525  1_455   S
    N196   C125      1.46908  1_455   S
    C119   C120      1.39106  1_455   S
    C107   H13       1.09810      .   S
    C123   C122      1.39664      .   S
    H28    C125      1.10218  1_455   S
    H2     C96       1.08674      .   S
    C125   H27       1.10186      .   S
    C95    C96       1.39850      .   S
    C95    C94       1.39788      .   S
    C120   H23       1.08847      .   S
    C120   C121      1.39799      .   S
    C96    C97       1.39668      .   S
    H1     C94       1.08840      .   S
    C122   C121      1.39846      .   S
    C122   H24       1.08666      .   S
    H5     C99       1.10174      .   S
    C94    C93       1.39104  1_655   S
    C99    H6        1.10236  1_655   S
    C99    N192      1.46930  1_655   S
    H35    C133      1.09804      .   S
    C97    N192      1.44544  1_655   S
    C97    C92       1.41122  1_655   S
    C133   H34       1.09852      .   S
    C133   N197      1.48371      .   S
    C93    C92       1.40274      .   S
    C93    H0        1.09043      .   S
    N192   C98       1.47289  1_455   S
    H39    C138      1.08885      .   S
    N198   C138      1.34880      .   S
    N198   C134      1.35078      .   S
    C138   C137      1.38674      .   S
    N197   C132      1.47505      .   S
    N197   C131      1.42990      .   S
    H43    C142      1.08905      .   S
    H31    C130      1.08707      .   S
    H3     C98       1.10382      .   S
    H36    C134      1.09106      .   S
    C134   C135      1.39238      .   S
    C98    H4        1.09976      .   S
    C137   H38       1.08880      .   S
    C137   C136      1.40376      .   S
    H73    C175      1.08889      .   S
    H32    C132      1.09902      .   S
    C132   H33       1.09528      .   S
    H74    C176      1.08724      .   S
    C135   C136      1.40681      .   S
    C135   H37       1.09007      .   S
    C136   C143      1.47973      .   S
    C142   C143      1.40463      .   S
    C142   C141      1.38942  1_545   S
    H89    C188      1.16316      .   S
    C130   C131      1.40202      .   S
    C130   C129      1.39396      .   S
    C131   C126      1.43267      .   S
    H42    C141      1.09114      .   S
    C175   C176      1.38794      .   S
    C175   C174      1.40854      .   S
    C143   C139      1.40578      .   S
    C141   N199      1.34729      .   S
    C176   C177      1.39918      .   S
    C188   N207      1.47718      .   S
    C188   C187      1.21933  1_545   S
    H88    C187      1.09058      .   S
    C129   C128      1.40535      .   S
    N207   C189      1.34734      .   S
    C187   C191      1.40471      .   S
    C126   C127      1.40848      .   S
    C174   C179      1.43260      .   S
    C139   H40       1.09024      .   S
    C139   C140      1.39034  1_545   S
    N199   C140      1.34777      .   S
    C177   C178      1.39946      .   S
    C140   H41       1.08982      .   S
    H77    C180      1.09534      .   S
    C128   C127      1.38794      .   S
    C128   H30       1.08734      .   S
    C189   H90       1.09049      .   S
    C189   C190      1.38939  1_545   S
    C191   C190      1.40493      .   S
    C191   C184      1.48047      .   S
    C127   H29       1.08905      .   S
    H81    C183      1.09042      .   S
    C179   C178      1.40201      .   S
    C179   N205      1.42988      .   S
    H48    C150      1.09985      .   S
    C178   H75       1.08642      .   S
    C190   H91       1.08907      .   S
    C184   C183      1.40682      .   S
    C184   C185      1.40377      .   S
    C183   C182      1.39230      .   S
    C180   H76       1.09898      .   S
    C180   N205      1.47499      .   S
    H82    C185      1.08880      .   S
    C185   C186      1.38666      .   S
    C150   H47       1.10378      .   S
    C150   N200      1.47292  1_455   S
    C182   H80       1.09108      .   S
    C182   N206      1.35079      .   S
    N205   C181      1.48384      .   S
    C186   N206      1.34878      .   S
    C186   H83       1.08891      .   S
    H44    C145      1.13978      .   S
    C144   C145      1.40276      .   S
    C144   C149      1.38553  1_655   S
    H78    C181      1.09855      .   S
    N200   C149      1.43263  1_655   S
    N200   C151      1.45892  1_655   S
    C145   C146      1.39091  1_655   S
    C181   H79       1.09801      .   S
    C149   C148      1.44099      .   S
    H50    C151      1.09328  1_655   S
    H68    C170      1.08656      .   S
    C151   H49       1.18810      .   S
    C169   C170      1.39847      .   S
    C169   C168      1.39807      .   S
    C146   H45       1.08847      .   S
    C146   C147      1.39798      .   S
    C170   C171      1.44507      .   S
    H67    C168      1.08849      .   S
    C148   C147      1.39861      .   S
    C148   H46       1.08665      .   S
    H71    C173      1.18975      .   S
    C168   C167      1.39107  1_455   S
    C173   H72       1.09291  1_455   S
    C173   N204      1.45870  1_455   S
    H57    C159      1.04881      .   S
    C171   N204      1.43161  1_455   S
    C171   C166      1.38335  1_455   S
    C159   H56       1.13275      .   S
    C159   N201      1.57974      .   S
    C167   C166      1.40264      .   S
    C167   H66       1.09039      .   S
    N204   C172      1.47280  1_655   S
    H61    C85       1.08890      .   S
    N202   C85       1.34882      .   S
    N202   C160      1.35070      .   S
    C85    C84       1.38666      .   S
    N201   C158      1.47497      .   S
    N201   C157      1.42967      .   S
    H65    C164      1.08909      .   S
    H53    C156      1.08632      .   S
    H69    C172      1.10384      .   S
    H58    C160      1.09102      .   S
    C160   C161      1.39238      .   S
    C172   H70       1.09985      .   S
    C84    H60       1.08880      .   S
    C84    C162      1.40375      .   S
    H7     C101      1.08897      .   S
    H54    C158      1.09903      .   S
    C158   H55       1.09524      .   S
    H8     C102      1.08721      .   S
    C161   C162      1.40672      .   S
    C161   H59       1.09005      .   S
    C162   C165      1.48039      .   S
    C164   C165      1.40491      .   S
    C164   C163      1.38933  1_545   S
    H19    C114      1.16230      .   S
    C156   C157      1.40221      .   S
    C156   C155      1.39911      .   S
    C157   C152      1.43271      .   S
    H64    C163      1.09043      .   S
    C101   C102      1.38785      .   S
    C114   N195      1.47608      .   S
    C114   C113      1.22051  1_545   S
    H18    C113      1.09014      .   S
