# CIF file generated by openbabel 2.4.90, see http://openbabel.sf.net
data_I
_chemical_name_common ''
_cell_length_a 14.132
_cell_length_b 18.093
_cell_length_c 19.553
_cell_angle_alpha 98.827
_cell_angle_beta 90.064
_cell_angle_gamma 90.027
_space_group_name_H-M_alt 'P 1'
_space_group_name_Hall 'P 1'
loop_
    _symmetry_equiv_pos_as_xyz
    x,y,z
loop_
    _atom_site_label
    _atom_site_type_symbol
    _atom_site_fract_x
    _atom_site_fract_y
    _atom_site_fract_z
    _atom_site_occupancy
    C0      C    0.07198   0.80705   0.42149   1.000
    C1      C    0.89994   0.80850   0.15230   1.000
    C2      C    0.02136   0.61100   0.44527   1.000
    C3      C    0.06492   0.59419   0.22465   1.000
    C4      C    0.28706   0.55484   0.99280   1.000
    C5      C    0.61665   0.74701   0.02110   1.000
    C6      C    0.32933   0.43585   0.11822   1.000
    C7      C    0.45328   0.62028   0.23739   1.000
    O8      O    0.15194   0.77086   0.42108   1.000
    O9      O    0.04123   0.84619   0.47491   1.000
    O10     O    0.86005   0.86897   0.14099   1.000
    O11     O    0.90488   0.74939   0.10819   1.000
    O12     O    0.11017   0.60676   0.43870   1.000
    C13     C    0.07201   0.19265   0.07872   1.000
    C14     C    0.89848   0.19191   0.34718   1.000
    C15     C    0.02131   0.38882   0.05440   1.000
    C16     C    0.06479   0.40576   0.27496   1.000
    C17     C    0.28705   0.44519   0.50718   1.000
    C18     C    0.61636   0.25303   0.47891   1.000
    C19     C    0.32932   0.56417   0.38168   1.000
    C20     C    0.45279   0.37968   0.26265   1.000
    C21     C    0.92805   0.19287   0.57840   1.000
    C22     C    0.10008   0.19151   0.84757   1.000
    C23     C    0.97867   0.38901   0.55468   1.000
    C24     C    0.93506   0.40580   0.77526   1.000
    C25     C    0.71295   0.44525   0.00720   1.000
    C26     C    0.38340   0.25302   0.97888   1.000
    C27     C    0.67067   0.56419   0.88170   1.000
    C28     C    0.54675   0.37974   0.76260   1.000
    C29     C    0.92804   0.80734   0.92125   1.000
    C30     C    0.10156   0.80806   0.65279   1.000
    C31     C    0.97872   0.61119   0.94559   1.000
    C32     C    0.93525   0.59424   0.72500   1.000
    C33     C    0.71299   0.55491   0.49280   1.000
    C34     C    0.38363   0.74699   0.52106   1.000
    C35     C    0.67072   0.43587   0.61827   1.000
    C36     C    0.54714   0.62030   0.73731   1.000
    O37     O    0.98007   0.57792   0.49097   1.000
    O38     O    0.14704   0.62506   0.24042   1.000
    O39     O    0.04500   0.55953   0.16650   1.000
    O40     O    0.25506   0.52773   0.93272   1.000
    O41     O    0.23830   0.54472   0.04640   1.000
    O42     O    0.62129   0.79993   0.98607   1.000
    O43     O    0.68323   0.73089   0.06120   1.000
    O44     O    0.27588   0.47120   0.16420   1.000
    O45     O    0.32041   0.36614   0.09629   1.000
    O46     O    0.37162   0.65302   0.23635   1.000
    O47     O    0.50990   0.62834   0.28645   1.000
    O48     O    0.15208   0.22880   0.07932   1.000
    O49     O    0.04127   0.15351   0.02523   1.000
    O50     O    0.86002   0.13103   0.35897   1.000
    O51     O    0.90177   0.25149   0.39091   1.000
    O52     O    0.11013   0.39309   0.06112   1.000
    O53     O    0.98001   0.42203   0.00875   1.000
    O54     O    0.14688   0.37489   0.25935   1.000
    O55     O    0.04493   0.44039   0.33304   1.000
    O56     O    0.25516   0.47222   0.56725   1.000
    O57     O    0.23827   0.45544   0.45355   1.000
    O58     O    0.62119   0.20009   0.51392   1.000
    O59     O    0.68276   0.26919   0.43877   1.000
    O60     O    0.27578   0.52880   0.33561   1.000
    O61     O    0.32050   0.63389   0.40359   1.000
    O62     O    0.37105   0.34697   0.26362   1.000
    O63     O    0.50939   0.37157   0.21367   1.000
    O64     O    0.84811   0.22910   0.57881   1.000
    O65     O    0.95880   0.15369   0.52505   1.000
    O66     O    0.13998   0.13104   0.85897   1.000
    O67     O    0.09514   0.25062   0.89176   1.000
    O68     O    0.88985   0.39326   0.56125   1.000
    O69     O    0.01999   0.42212   0.50902   1.000
    O70     O    0.85293   0.37494   0.75950   1.000
    O71     O    0.95500   0.44045   0.83336   1.000
    O72     O    0.74498   0.47228   0.06729   1.000
    O73     O    0.76166   0.45547   0.95359   1.000
    O74     O    0.37875   0.20010   0.01391   1.000
    O75     O    0.31682   0.26913   0.93877   1.000
    O76     O    0.72412   0.52884   0.83570   1.000
    O77     O    0.67960   0.63391   0.90365   1.000
    O78     O    0.62841   0.34701   0.76365   1.000
    O79     O    0.49014   0.37166   0.71353   1.000
    O80     O    0.84796   0.77121   0.92064   1.000
    O81     O    0.95877   0.84649   0.97474   1.000
    O82     O    0.13999   0.86895   0.64098   1.000
    O83     O    0.09827   0.74848   0.60907   1.000
    O84     O    0.88990   0.60693   0.93887   1.000
    O85     O    0.02001   0.57799   0.99125   1.000
    O86     O    0.85317   0.62511   0.74062   1.000
    O87     O    0.95511   0.55961   0.66690   1.000
    O88     O    0.74485   0.52779   0.43277   1.000
    O89     O    0.76182   0.54479   0.54646   1.000
    O90     O    0.37882   0.79994   0.48600   1.000
    O91     O    0.31724   0.73082   0.56119   1.000
    O92     O    0.72427   0.47124   0.66433   1.000
    O93     O    0.67954   0.36615   0.59636   1.000
    O94     O    0.62887   0.65303   0.73637   1.000
    O95     O    0.49052   0.62839   0.78628   1.000
loop_
    _geom_bond_atom_site_label_1
    _geom_bond_atom_site_label_2
    _geom_bond_distance
    _geom_bond_site_symmetry_2
    _ccdc_geom_bond_type
    C25    O72       1.28331      .   S
    C25    O73       1.29144  1_554   S
    O53    C15       1.28929  1_655   S
    O74    C26       1.26156  1_554   S
    C5     O43       1.28602      .   S
    C5     O42       1.26161  1_554   S
    O49    C13       1.24726      .   S
    O41    C4        1.29114  1_554   S
    C15    O52       1.26300      .   S
    C13    O48       1.30579      .   S
    O45    C6        1.27463      .   S
    O11    C1        1.26868      .   S
    C6     O44       1.27013      .   S
    O10    C1        1.27998      .   S
    O39    C3        1.24319      .   S
    O63    C20       1.23979      .   S
    C3     O38       1.30372      .   S
    O46    C7        1.29905      .   S
    C7     O47       1.23975      .   S
    O54    C16       1.30382      .   S
    C20    O62       1.29922      .   S
    C16    O55       1.24241      .   S
    O60    C19       1.27060      .   S
    C14    O50       1.28052      .   S
    C14    O51       1.26971      .   S
    C19    O61       1.27468      .   S
    O8     C0        1.30580      .   S
    C0     O9        1.24722      .   S
    O88    C33       1.28289      .   S
    O12    C2        1.26300      .   S
    O59    C18       1.28595      .   S
    C2     O37       1.28923  1_455   S
    O57    C17       1.29127      .   S
    C18    O58       1.26169      .   S
    O90    C34       1.26247      .   S
    C33    O89       1.29154      .   S
    C17    O56       1.28331      .   S
    O69    C23       1.28909  1_455   S
    C34    O91       1.28588      .   S
    O65    C21       1.24652      .   S
    C23    O68       1.26308      .   S
    C21    O64       1.30583      .   S
    O93    C35       1.27472      .   S
    O83    C30       1.26972      .   S
    C35    O92       1.27056      .   S
    O82    C30       1.28056      .   S
    O87    C32       1.24267      .   S
    O79    C28       1.23976      .   S
    C32    O86       1.30383      .   S
    O94    C36       1.29921      .   S
    C36    O95       1.23984      .   S
    O70    C24       1.30370      .   S
    C28    O78       1.29903      .   S
    C24    O71       1.24241      .   S
    O76    C27       1.27048      .   S
    C22    O66       1.28050      .   S
    C22    O67       1.26956      .   S
    C27    O77       1.27472      .   S
    O80    C29       1.30579      .   S
    C29    O81       1.24722      .   S
    O40    C4        1.28331      .   S
    O75    C26       1.28613      .   S
    O84    C31       1.26296      .   S
    C31    O85       1.28920  1_655   S
