# CIF file generated by openbabel 2.4.90, see http://openbabel.sf.net
data_I
_chemical_name_common ''
_cell_length_a 14.132
_cell_length_b 18.093
_cell_length_c 19.553
_cell_angle_alpha 98.827
_cell_angle_beta 90.064
_cell_angle_gamma 90.027
_space_group_name_H-M_alt 'P 1'
_space_group_name_Hall 'P 1'
loop_
    _symmetry_equiv_pos_as_xyz
    x,y,z
loop_
    _atom_site_label
    _atom_site_type_symbol
    _atom_site_fract_x
    _atom_site_fract_y
    _atom_site_fract_z
    _atom_site_occupancy
    Zr0     Zr   0.20884   0.81634   0.53697   1.000
    Zr1     Zr   0.19300   0.66485   0.35020   1.000
    Zr2     Zr   0.12604   0.47632   0.98006   1.000
    Zr3     Zr   0.26448   0.60045   0.16113   1.000
    Zr4     Zr   0.20845   0.18357   0.96324   1.000
    Zr5     Zr   0.19312   0.33511   0.14973   1.000
    Zr6     Zr   0.12623   0.52380   0.51994   1.000
    Zr7     Zr   0.26419   0.39954   0.33889   1.000
    Zr8     Zr   0.79114   0.18364   0.46290   1.000
    Zr9     Zr   0.80702   0.33510   0.64965   1.000
    Zr10    Zr   0.87399   0.52373   0.02000   1.000
    Zr11    Zr   0.73556   0.39960   0.83886   1.000
    Zr12    Zr   0.79158   0.81645   0.03671   1.000
    Zr13    Zr   0.80696   0.66488   0.85020   1.000
    Zr14    Zr   0.87380   0.47630   0.48010   1.000
    Zr15    Zr   0.73578   0.60052   0.66114   1.000
    N16     N    0.42320   0.44656   0.38874   1.000
    O17     O    0.38345   0.43480   0.37628   1.000
    N18     N    0.45772   0.34317   0.50174   1.000
    O19     O    0.44223   0.38891   0.45163   1.000
    N20     N    0.00809   0.33366   0.16323   1.000
    N21     N    0.97489   0.18012   0.21546   1.000
    O22     O    0.98947   0.24806   0.19234   1.000
    N23     N    0.22765   0.89059   0.05965   1.000
    O24     O    0.23884   0.77476   0.10097   1.000
    O25     O    0.22200   0.00713   0.01936   1.000
    N26     N    0.77261   0.89066   0.55957   1.000
    O27     O    0.76145   0.77485   0.60094   1.000
    O28     O    0.77804   0.00719   0.51918   1.000
    N29     N    0.99197   0.66632   0.83674   1.000
    N30     N    0.02427   0.81986   0.78452   1.000
    O31     O    0.00912   0.75192   0.80763   1.000
    N32     N    0.00823   0.66614   0.33636   1.000
    N33     N    0.97550   0.81993   0.28447   1.000
    O34     O    0.98988   0.75188   0.30743   1.000
    N35     N    0.77237   0.10894   0.94031   1.000
    O36     O    0.76119   0.22503   0.89902   1.000
    O37     O    0.77803   0.99264   0.98059   1.000
    N38     N    0.99175   0.33381   0.66357   1.000
    N39     N    0.02367   0.18004   0.71493   1.000
    O40     O    0.00874   0.24809   0.69223   1.000
    N41     N    0.22738   0.10883   0.44038   1.000
    O42     O    0.23854   0.22492   0.39905   1.000
    O43     O    0.22195   0.99254   0.48074   1.000
    N44     N    0.57656   0.44660   0.88870   1.000
    O45     O    0.61631   0.43485   0.87624   1.000
    N46     N    0.54216   0.34322   0.00174   1.000
    O47     O    0.55760   0.38896   0.95161   1.000
    N48     N    0.57681   0.55346   0.61122   1.000
    O49     O    0.61655   0.56522   0.62370   1.000
    N50     N    0.54226   0.65686   0.49817   1.000
    O51     O    0.55776   0.61111   0.54831   1.000
    N52     N    0.42344   0.55345   0.11127   1.000
    O53     O    0.38370   0.56520   0.12374   1.000
    N54     N    0.45788   0.65682   0.99822   1.000
    O55     O    0.44243   0.61109   0.04836   1.000
    C56     C    0.91159   0.80835   0.93888   1.000
    O57     O    0.95040   0.81058   0.88750   1.000
    O58     O    0.86952   0.76319   0.91215   1.000
    O59     O    0.86568   0.80109   0.95878   1.000
    C60     C    0.88829   0.80895   0.13383   1.000
    O61     O    0.91815   0.81158   0.18499   1.000
    O62     O    0.85705   0.82583   0.11134   1.000
    C63     C    0.08845   0.19165   0.06109   1.000
    O64     O    0.04942   0.18941   0.11247   1.000
    O65     O    0.13053   0.23680   0.08781   1.000
    O66     O    0.13436   0.19892   0.04119   1.000
    C67     C    0.11327   0.80850   0.63428   1.000
    O68     O    0.14384   0.82557   0.61163   1.000
    O69     O    0.13341   0.79545   0.60365   1.000
    O70     O    0.08291   0.81124   0.68532   1.000
    C71     C    0.73986   0.45767   0.00936   1.000
    O72     O    0.77884   0.47364   0.99808   1.000
    O73     O    0.74424   0.44260   0.95279   1.000
    O74     O    0.77468   0.47784   0.02650   1.000
    O75     O    0.67261   0.42046   0.00580   1.000
    C76     C    0.08838   0.80803   0.43916   1.000
    O77     O    0.13043   0.76294   0.41240   1.000
    O78     O    0.13439   0.80081   0.45909   1.000
    O79     O    0.04955   0.81039   0.38767   1.000
    C80     C    0.30854   0.57562   0.37363   1.000
    O81     O    0.28264   0.61249   0.37526   1.000
    O82     O    0.28926   0.51989   0.35544   1.000
    O83     O    0.35340   0.55920   0.39417   1.000
    C84     C    0.64039   0.75928   0.02279   1.000
    O85     O    0.68890   0.76647   0.03587   1.000
    O86     O    0.57798   0.72447   0.01554   1.000
    C87     C    0.91165   0.19189   0.56075   1.000
    O88     O    0.95026   0.18955   0.61212   1.000
    O89     O    0.86961   0.23699   0.58749   1.000
    O90     O    0.86564   0.19913   0.54080   1.000
    C91     C    0.03715   0.40131   0.04142   1.000
    O92     O    0.07762   0.41801   0.03101   1.000
    O93     O    0.09439   0.38270   0.07342   1.000
    O94     O    0.00035   0.37535   0.06199   1.000
    O95     O    0.98207   0.43710   0.02790   1.000
    O96     O    0.04509   0.42524   0.01791   1.000
    C97     C    0.35965   0.24075   0.97719   1.000
    O98     O    0.31114   0.23355   0.96410   1.000
    O99     O    0.42207   0.27556   0.98443   1.000
    C100    C    0.96287   0.59870   0.95857   1.000
    O101    O    0.01795   0.56293   0.97211   1.000
    O102    O    0.95494   0.57478   0.98210   1.000
    O103    O    0.99968   0.62465   0.93800   1.000
    O104    O    0.92241   0.58202   0.96900   1.000
    O105    O    0.90565   0.61730   0.92655   1.000
    C106    C    0.11174   0.19106   0.86610   1.000
    O107    O    0.14298   0.17418   0.88860   1.000
    O108    O    0.08166   0.18842   0.81480   1.000
    C109    C    0.26014   0.54243   0.99064   1.000
    O110    O    0.32741   0.57962   0.99419   1.000
    O111    O    0.22116   0.52648   0.00194   1.000
    O112    O    0.25577   0.55751   0.04720   1.000
    O113    O    0.22534   0.52223   0.97352   1.000
    C114    C    0.44441   0.36607   0.24665   1.000
    O115    O    0.38101   0.36966   0.27395   1.000
    O116    O    0.46650   0.39787   0.27791   1.000
    C117    C    0.44494   0.63388   0.25340   1.000
    O118    O    0.38149   0.63031   0.22607   1.000
    O119    O    0.46696   0.60210   0.22214   1.000
    C120    C    0.64010   0.24077   0.47720   1.000
    O121    O    0.68852   0.23359   0.46402   1.000
    O122    O    0.57772   0.27556   0.48440   1.000
    C123    C    0.55510   0.36614   0.74659   1.000
    O124    O    0.61854   0.36972   0.77392   1.000
    O125    O    0.53306   0.39791   0.77659   1.000
    C126    C    0.96284   0.40147   0.54165   1.000
    O127    O    0.99964   0.37559   0.56234   1.000
    O128    O    0.01797   0.43721   0.52807   1.000
    O129    O    0.95487   0.42534   0.51811   1.000
    O130    O    0.92233   0.41812   0.53116   1.000
    O131    O    0.90564   0.38282   0.57355   1.000
    C132    C    0.91433   0.40706   0.78937   1.000
    O133    O    0.95527   0.40868   0.75987   1.000
    O134    O    0.87215   0.38104   0.74697   1.000
    O135    O    0.85429   0.39717   0.79428   1.000
    C136    C    0.73988   0.54250   0.49068   1.000
    O137    O    0.77460   0.52227   0.47356   1.000
    O138    O    0.77885   0.52652   0.50198   1.000
    O139    O    0.74434   0.55758   0.54724   1.000
    O140    O    0.67266   0.57967   0.49419   1.000
    C141    C    0.91451   0.59299   0.71084   1.000
    O142    O    0.95539   0.59136   0.74046   1.000
    O143    O    0.87229   0.61899   0.75313   1.000
    O144    O    0.85449   0.60290   0.70586   1.000
    C145    C    0.26016   0.45762   0.50933   1.000
    O146    O    0.32736   0.42041   0.50578   1.000
    O147    O    0.22120   0.47362   0.49804   1.000
    O148    O    0.25569   0.44255   0.45277   1.000
    O149    O    0.22543   0.47781   0.52646   1.000
    C150    C    0.88676   0.19148   0.36569   1.000
    O151    O    0.91691   0.18873   0.31465   1.000
    O152    O    0.86661   0.20452   0.39630   1.000
    O153    O    0.85617   0.17440   0.38831   1.000
    C154    C    0.69146   0.57565   0.87368   1.000
    O155    O    0.71737   0.61252   0.87530   1.000
    O156    O    0.64659   0.55923   0.89418   1.000
    O157    O    0.71065   0.51993   0.85548   1.000
    C158    C    0.69151   0.42442   0.62632   1.000
    O159    O    0.64664   0.44083   0.60577   1.000
    O160    O    0.71077   0.48015   0.64453   1.000
    O161    O    0.71739   0.38752   0.62466   1.000
    C162    C    0.08565   0.59293   0.21052   1.000
    O163    O    0.04334   0.59130   0.24004   1.000
    O164    O    0.12784   0.61894   0.25292   1.000
    O165    O    0.14571   0.60284   0.20565   1.000
    C166    C    0.08553   0.40701   0.28912   1.000
    O167    O    0.04327   0.40863   0.25949   1.000
    O168    O    0.12777   0.38100   0.24683   1.000
    O169    O    0.14553   0.39711   0.29412   1.000
    C170    C    0.55551   0.63391   0.75332   1.000
    O171    O    0.61892   0.63034   0.72604   1.000
    O172    O    0.53344   0.60211   0.72205   1.000
    C173    C    0.03720   0.59856   0.45831   1.000
    O174    O    0.07770   0.58192   0.46882   1.000
    O175    O    0.09439   0.61718   0.42638   1.000
    O176    O    0.00038   0.62440   0.43760   1.000
    O177    O    0.98207   0.56283   0.47192   1.000
    O178    O    0.04517   0.57471   0.48188   1.000
    C179    C    0.30854   0.42439   0.12624   1.000
    O180    O    0.35341   0.44081   0.10574   1.000
    O181    O    0.28265   0.38751   0.12462   1.000
    O182    O    0.28936   0.48011   0.14445   1.000
    C183    C    0.35989   0.75925   0.52275   1.000
    O184    O    0.31147   0.76641   0.53592   1.000
    O185    O    0.42227   0.72446   0.51550   1.000
loop_
    _geom_bond_atom_site_label_1
    _geom_bond_atom_site_label_2
    _geom_bond_distance
    _geom_bond_site_symmetry_2
    _ccdc_geom_bond_type
    N16    O17       0.63554      .   S
    Zr7    O17       1.90662      .   S
    N18    O19       1.39342      .   S
    N16    O19       1.75084      .   S
    N21    O22       1.38865      .   S
    N20    O22       1.74995  1_455   S
    N23    O24       2.36406      .   S
    Zr3    O24       3.54970      .   S
    N23    O25       2.36285  1_565   S
    Zr4    O25       3.53654  1_556   S
    N26    O27       2.36434      .   S
    Zr15   O27       3.55045      .   S
    N26    O28       2.36339  1_565   S
    Zr8    O28       3.53776      .   S
    N30    O31       1.38987      .   S
    N29    O31       1.74697  1_655   S
    N33    O34       1.38878      .   S
    N32    O34       1.75013  1_455   S
    N35    O36       2.36840      .   S
    Zr11   O36       3.55417      .   S
    N35    O37       2.35857  1_545   S
    Zr12   O37       3.53223  1_554   S
    N39    O40       1.38737      .   S
    N38    O40       1.74480  1_655   S
    N41    O42       2.36865      .   S
    Zr7    O42       3.55484      .   S
    N41    O43       2.35902  1_545   S
    Zr0    O43       3.53311      .   S
    N44    O45       0.63609      .   S
    Zr11   O45       1.90827      .   S
    N46    O47       1.39382  1_554   S
    N44    O47       1.75118      .   S
    N48    O49       0.63558      .   S
    Zr15   O49       1.90673      .   S
    N50    O51       1.39386      .   S
    N48    O51       1.75128      .   S
    N52    O53       0.63601      .   S
    Zr3    O53       1.90803      .   S
    N54    O55       1.39388  1_556   S
    N52    O55       1.75126      .   S
    C56    O57       1.15131      .   S
    N30    O57       2.29795  1_455   S
    C56    O58       1.07781      .   S
    Zr13   O58       2.17896      .   S
    C56    O59       0.77828      .   S
    Zr12   O59       1.83567  1_554   S
    C60    O61       1.07955      .   S
    N33    O61       2.09029      .   S
    C60    O62       0.72276      .   S
    Zr12   O62       1.71319      .   S
    C63    O64       1.15285      .   S
    N21    O64       2.30235  1_655   S
    C63    O65       1.07779      .   S
    Zr5    O65       2.17880      .   S
    C63    O66       0.77836      .   S
    Zr4    O66       1.83581  1_556   S
    C67    O68       0.72150      .   S
    Zr0    O68       1.71196      .   S
    C67    O69       0.67266      .   S
    Zr0    O69       1.76997      .   S
    C67    O70       1.08089      .   S
    N30    O70       2.09381      .   S
    C71    O72       0.67475  1_554   S
    Zr10   O72       1.64067  1_554   S
    C71    O73       1.09961  1_554   S
    Zr11   O73       2.24731      .   S
    C71    O74       0.67044      .   S
    Zr10   O74       1.64543      .   S
    C71    O75       1.16027      .   S
    N46    O75       2.30674      .   S
    C76    O77       1.07818      .   S
    Zr1    O77       2.17995      .   S
    C76    O78       0.77895      .   S
    Zr0    O78       1.83563      .   S
    C76    O79       1.15267      .   S
    N33    O79       2.30202  1_655   S
    C80    O81       0.75749      .   S
    Zr1    O81       1.69845      .   S
    C80    O82       1.05199      .   S
    Zr7    O82       2.18059      .   S
    C80    O83       0.82942      .   S
    N16    O83       2.25243      .   S
    C84    O85       0.73594      .   S
    Zr12   O85       1.70816      .   S
    C84    O86       1.08006      .   S
    N54    O86       2.08863  1_556   S
    C87    O88       1.14892      .   S
    N39    O88       2.29098  1_455   S
    C87    O89       1.07823      .   S
    Zr9    O89       2.17989      .   S
    C87    O90       0.77934      .   S
    Zr8    O90       1.83639      .   S
    C91    O92       0.69196      .   S
    Zr2    O92       1.70214  1_556   S
    C91    O93       1.10584      .   S
    Zr5    O93       2.30330      .   S
    C91    O94       0.84318      .   S
    N20    O94       2.22658      .   S
    C91    O95       1.07119  1_455   S
    Zr10   O95       2.21133      .   S
    C91    O96       0.68741      .   S
    Zr2    O96       1.70931  1_556   S
    C97    O98       0.73603      .   S
    Zr4    O98       1.70822      .   S
    C97    O99       1.08012      .   S
    N46    O99       2.08876  1_554   S
    C100   O101      1.07118  1_655   S
    Zr2    O101      2.21121      .   S
    C100   O102      0.68752      .   S
    Zr10   O102      1.70934  1_554   S
    C100   O103      0.84318      .   S
    N29    O103      2.22666      .   S
    C100   O104      0.69192      .   S
    Zr10   O104      1.70236  1_554   S
    C100   O105      1.10586      .   S
    Zr13   O105      2.30346      .   S
    C106   O107      0.72295      .   S
    Zr4    O107      1.71337      .   S
    C106   O108      1.08318      .   S
    N39    O108      2.10089      .   S
    C109   O110      1.16025      .   S
    N54    O110      2.30671      .   S
    C109   O111      0.67475  1_556   S
    Zr2    O111      1.64058  1_556   S
    C109   O112      1.09953  1_556   S
    Zr3    O112      2.24706      .   S
    C109   O113      0.67038      .   S
    Zr2    O113      1.64544      .   S
    C114   O115      1.04037      .   S
    Zr7    O115      2.10360      .   S
    C114   O116      0.83277      .   S
    N16    O116      2.29445      .   S
    C117   O118      1.04010      .   S
    Zr3    O118      2.10294      .   S
    C117   O119      0.83284      .   S
    N52    O119      2.29428      .   S
    C120   O121      0.73606      .   S
    Zr8    O121      1.70746      .   S
    C120   O122      1.08012      .   S
    N18    O122      2.08884      .   S
    C123   O124      1.04015      .   S
    Zr11   O124      2.10307      .   S
    C123   O125      0.81772      .   S
    N44    O125      2.31580      .   S
    C126   O127      0.84328      .   S
    N38    O127      2.22739      .   S
    C126   O128      1.07176  1_655   S
    Zr6    O128      2.21235      .   S
    C126   O129      0.68714      .   S
    Zr14   O129      1.71004      .   S
    C126   O130      0.69241      .   S
    Zr14   O130      1.70204      .   S
    C126   O131      1.10530      .   S
    Zr9    O131      2.30211      .   S
    C132   O133      0.82125      .   S
    N38    O133      2.20585      .   S
    C132   O134      1.06913      .   S
    Zr9    O134      2.16085      .   S
    C132   O135      0.87551      .   S
    Zr11   O135      1.88905      .   S
    C136   O137      0.67057      .   S
    Zr14   O137      1.64521      .   S
    C136   O138      0.67457      .   S
    Zr14   O138      1.64085      .   S
    C136   O139      1.09943      .   S
    Zr15   O139      2.24676      .   S
    C136   O140      1.16031      .   S
    N50    O140      2.30682      .   S
    C141   O142      0.82135      .   S
    N29    O142      2.20551      .   S
    C141   O143      1.06911      .   S
    Zr13   O143      2.15997      .   S
    C141   O144      0.87542      .   S
    Zr15   O144      1.88837      .   S
    C145   O146      1.16037      .   S
    N18    O146      2.30693      .   S
    C145   O147      0.67463      .   S
    Zr6    O147      1.64084      .   S
    C145   O148      1.09926      .   S
    Zr7    O148      2.24664      .   S
    C145   O149      0.67056      .   S
    Zr6    O149      1.64532      .   S
    C150   O151      1.07966      .   S
    N21    O151      2.09005      .   S
    C150   O152      0.67238      .   S
    Zr8    O152      1.76913      .   S
    C150   O153      0.72124      .   S
    Zr8    O153      1.71109      .   S
    C154   O155      0.75724      .   S
    Zr13   O155      1.69832      .   S
    C154   O156      0.82945      .   S
    N44    O156      2.25268      .   S
    C154   O157      1.05196      .   S
    Zr11   O157      2.18019      .   S
    C158   O159      0.82938      .   S
    N48    O159      2.25244      .   S
    C158   O160      1.05208      .   S
    Zr15   O160      2.18064      .   S
    C158   O161      0.75775      .   S
    Zr9    O161      1.69842      .   S
    C162   O163      0.83506      .   S
    N32    O163      2.20163      .   S
    C162   O164      1.06907      .   S
    Zr1    O164      2.16025      .   S
    C162   O165      0.87569      .   S
    Zr3    O165      1.88916      .   S
    C166   O167      0.83519      .   S
    N20    O167      2.20092      .   S
    C166   O168      1.06923      .   S
    Zr5    O168      2.16050      .   S
    C166   O169      0.87518      .   S
    Zr7    O169      1.88807      .   S
    C170   O171      1.04032      .   S
    Zr15   O171      2.10341      .   S
    C170   O172      0.83277      .   S
    N48    O172      2.29447      .   S
    C173   O174      0.69230      .   S
    Zr6    O174      1.70211      .   S
    C173   O175      1.10548      .   S
    Zr1    O175      2.30268      .   S
    C173   O176      0.84328      .   S
    N32    O176      2.22734      .   S
    C173   O177      1.07165  1_455   S
    Zr14   O177      2.21195      .   S
    C173   O178      0.68724      .   S
    Zr6    O178      1.70989      .   S
    C179   O180      0.82935      .   S
    N52    O180      2.25268      .   S
    C179   O181      0.75732      .   S
    Zr5    O181      1.69822      .   S
    C179   O182      1.05202      .   S
    Zr3    O182      2.18035      .   S
    C183   O184      0.73600      .   S
    Zr0    O184      1.70743      .   S
    C183   O185      1.08010      .   S
    N50    O185      2.08868      .   S
