# CIF file generated by openbabel 2.4.90, see http://openbabel.sf.net
data_I
_chemical_name_common ''
_cell_length_a 14.132
_cell_length_b 18.093
_cell_length_c 19.553
_cell_angle_alpha 98.827
_cell_angle_beta 90.064
_cell_angle_gamma 90.027
_space_group_name_H-M_alt 'P 1'
_space_group_name_Hall 'P 1'
loop_
    _symmetry_equiv_pos_as_xyz
    x,y,z
loop_
    _atom_site_label
    _atom_site_type_symbol
    _atom_site_fract_x
    _atom_site_fract_y
    _atom_site_fract_z
    _atom_site_occupancy
    C0      C    0.20884   0.81634   0.53697   1.000
    C1      C    0.19300   0.66485   0.35020   1.000
    C2      C    0.12604   0.47632   0.98006   1.000
    C3      C    0.26448   0.60045   0.16113   1.000
    C4      C    0.20845   0.18357   0.96324   1.000
    C5      C    0.19312   0.33511   0.14973   1.000
    C6      C    0.12623   0.52380   0.51994   1.000
    C7      C    0.26419   0.39954   0.33889   1.000
    C8      C    0.79114   0.18364   0.46290   1.000
    C9      C    0.80702   0.33510   0.64965   1.000
    C10     C    0.87399   0.52373   0.02000   1.000
    C11     C    0.73556   0.39960   0.83886   1.000
    C12     C    0.79158   0.81645   0.03671   1.000
    C13     C    0.80696   0.66488   0.85020   1.000
    C14     C    0.87380   0.47630   0.48010   1.000
    C15     C    0.73578   0.60052   0.66114   1.000
    C16     C    0.02260   0.92390   0.36497   1.000
    C17     C    0.94895   0.92822   0.24869   1.000
    C18     C    0.93455   0.69014   0.21160   1.000
    C19     C    0.89152   0.63130   0.39381   1.000
    C20     C    0.95183   0.71155   0.43438   1.000
    C21     C    0.92110   0.59692   0.26237   1.000
    C22     C    0.00413   0.54997   0.30869   1.000
    C23     C    0.34983   0.63942   0.90565   1.000
    C24     C    0.48585   0.72801   0.91779   1.000
    C25     C    0.56333   0.65548   0.10819   1.000
    C26     C    0.47399   0.44208   0.09337   1.000
    C27     C    0.39793   0.46414   0.02876   1.000
    C28     C    0.55818   0.57452   0.16198   1.000
    C29     C    0.48548   0.50887   0.19232   1.000
    C30     C    0.09103   0.70717   0.10218   1.000
    C31     C    0.07714   0.82775   0.05848   1.000
    C32     C    0.37834   0.85869   0.09523   1.000
    C33     C    0.37782   0.73968   0.14299   1.000
    C34     C    0.10406   0.90081   0.97722   1.000
    C35     C    0.11010   0.02346   0.93415   1.000
    C36     C    0.33822   0.09597   0.05899   1.000
    C37     C    0.34279   0.97692   0.10895   1.000
    C38     C    0.02252   0.07595   0.13551   1.000
    C39     C    0.94827   0.07201   0.25155   1.000
    C40     C    0.93330   0.31005   0.28765   1.000
    C41     C    0.89137   0.36805   0.10536   1.000
    C42     C    0.95214   0.28803   0.06501   1.000
    C43     C    0.92102   0.40314   0.23686   1.000
    C44     C    0.00435   0.44986   0.19066   1.000
    C45     C    0.34992   0.36054   0.59433   1.000
    C46     C    0.48577   0.27195   0.58222   1.000
    C47     C    0.56292   0.34454   0.39180   1.000
    C48     C    0.47401   0.55791   0.40666   1.000
    C49     C    0.39798   0.53591   0.47122   1.000
    C50     C    0.55784   0.42553   0.33814   1.000
    C51     C    0.48511   0.49111   0.30771   1.000
    C52     C    0.09075   0.29275   0.39782   1.000
    C53     C    0.07685   0.17209   0.44151   1.000
    C54     C    0.37792   0.14127   0.40481   1.000
    C55     C    0.37737   0.26028   0.35706   1.000
    C56     C    0.10393   0.09900   0.52276   1.000
    C57     C    0.11018   0.97638   0.56592   1.000
    C58     C    0.33802   0.90408   0.44100   1.000
    C59     C    0.34235   0.02308   0.39114   1.000
    C60     C    0.97747   0.07605   0.63000   1.000
    C61     C    0.05111   0.07177   0.75128   1.000
    C62     C    0.06544   0.30986   0.78831   1.000
    C63     C    0.10849   0.36860   0.60610   1.000
    C64     C    0.04810   0.28840   0.56552   1.000
    C65     C    0.07888   0.40305   0.73754   1.000
    C66     C    0.99584   0.44999   0.69122   1.000
    C67     C    0.65022   0.36063   0.09432   1.000
    C68     C    0.51423   0.27201   0.08218   1.000
    C69     C    0.43671   0.34455   0.89179   1.000
    C70     C    0.52600   0.55797   0.90655   1.000
    C71     C    0.60206   0.53595   0.97119   1.000
    C72     C    0.44183   0.42548   0.83799   1.000
    C73     C    0.51448   0.49114   0.80765   1.000
    C74     C    0.90901   0.29287   0.89784   1.000
    C75     C    0.92289   0.17226   0.94149   1.000
    C76     C    0.62169   0.14134   0.90471   1.000
    C77     C    0.62221   0.26039   0.85702   1.000
    C78     C    0.89598   0.09920   0.02272   1.000
    C79     C    0.88994   0.97655   0.06579   1.000
    C80     C    0.66179   0.90405   0.94097   1.000
    C81     C    0.65722   0.02310   0.89101   1.000
    C82     C    0.97754   0.92403   0.86446   1.000
    C83     C    0.05178   0.92798   0.74842   1.000
    C84     C    0.06677   0.68993   0.71233   1.000
    C85     C    0.10867   0.63189   0.89460   1.000
    C86     C    0.04795   0.71194   0.93495   1.000
    C87     C    0.07903   0.59684   0.76310   1.000
    C88     C    0.99570   0.55011   0.80929   1.000
    C89     C    0.65007   0.63949   0.40564   1.000
    C90     C    0.51419   0.72806   0.41774   1.000
    C91     C    0.43706   0.65548   0.60808   1.000
    C92     C    0.52604   0.44210   0.59325   1.000
    C93     C    0.60210   0.46415   0.52873   1.000
    C94     C    0.44214   0.57445   0.66179   1.000
    C95     C    0.51486   0.50887   0.69222   1.000
    C96     C    0.90925   0.70728   0.60222   1.000
    C97     C    0.92314   0.82790   0.55840   1.000
    C98     C    0.62208   0.85874   0.59517   1.000
    C99     C    0.62265   0.73978   0.64300   1.000
    C100    C    0.89604   0.90097   0.47710   1.000
    C101    C    0.88978   0.02358   0.43398   1.000
    C102    C    0.66197   0.09590   0.55873   1.000
    C103    C    0.65766   0.97692   0.60881   1.000
    C104    C    0.07198   0.80705   0.42149   1.000
    C105    C    0.01992   0.80407   0.35427   1.000
    C106    C    0.00245   0.87254   0.33133   1.000
    C107    C    0.96291   0.87519   0.26657   1.000
    C108    C    0.94108   0.80843   0.22336   1.000
    C109    C    0.89994   0.80850   0.15230   1.000
    C110    C    0.95470   0.74003   0.24692   1.000
    C111    C    0.99236   0.73687   0.31248   1.000
    C112    C    0.96238   0.65682   0.40211   1.000
    C113    C    0.02136   0.61100   0.44527   1.000
    C114    C    0.99343   0.59996   0.28370   1.000
    C115    C    0.06492   0.59419   0.22465   1.000
    C116    C    0.28706   0.55484   0.99280   1.000
    C117    C    0.37588   0.59874   0.00171   1.000
    C118    C    0.39515   0.64444   0.95121   1.000
    C119    C    0.47025   0.69450   0.95803   1.000
    C120    C    0.52983   0.69798   0.01560   1.000
    C121    C    0.61665   0.74701   0.02110   1.000
    C122    C    0.51324   0.65180   0.06560   1.000
    C123    C    0.43760   0.60104   0.06017   1.000
    C124    C    0.40951   0.47336   0.08482   1.000
    C125    C    0.32933   0.43585   0.11822   1.000
    C126    C    0.48412   0.56327   0.17398   1.000
    C127    C    0.45328   0.62028   0.23739   1.000
    C128    C    0.15334   0.74239   0.10010   1.000
    C129    C    0.14604   0.81029   0.07533   1.000
    C130    C    0.22717   0.85492   0.07301   1.000
    C131    C    0.31220   0.82822   0.09720   1.000
    C132    C    0.31318   0.76070   0.12251   1.000
    C133    C    0.15800   0.94172   0.99689   1.000
    C134    C    0.16039   0.00000   0.97271   1.000
    C135    C    0.28822   0.05074   0.04278   1.000
    C136    C    0.29048   0.98390   0.06951   1.000
    C137    C    0.22473   0.92724   0.04646   1.000
    C138    C    0.07201   0.19265   0.07872   1.000
    C139    C    0.01976   0.19576   0.14579   1.000
    C140    C    0.00214   0.12739   0.16888   1.000
    C141    C    0.96228   0.12495   0.23351   1.000
    C142    C    0.94000   0.19181   0.27636   1.000
    C143    C    0.89848   0.19191   0.34718   1.000
    C144    C    0.95379   0.26009   0.25262   1.000
    C145    C    0.99193   0.26304   0.18723   1.000
    C146    C    0.96235   0.34280   0.09733   1.000
    C147    C    0.02131   0.38882   0.05440   1.000
    C148    C    0.99339   0.39996   0.21571   1.000
    C149    C    0.06479   0.40576   0.27496   1.000
    C150    C    0.28705   0.44519   0.50718   1.000
    C151    C    0.37579   0.40127   0.49830   1.000
    C152    C    0.39510   0.35552   0.54877   1.000
    C153    C    0.47013   0.30547   0.54197   1.000
    C154    C    0.52958   0.30202   0.48400   1.000
    C155    C    0.61636   0.25303   0.47891   1.000
    C156    C    0.51292   0.34822   0.43440   1.000
    C157    C    0.43737   0.39897   0.43986   1.000
    C158    C    0.40947   0.52666   0.41517   1.000
    C159    C    0.32932   0.56417   0.38168   1.000
    C160    C    0.48377   0.43673   0.32607   1.000
    C161    C    0.45279   0.37968   0.26265   1.000
    C162    C    0.15301   0.25750   0.39983   1.000
    C163    C    0.14571   0.18960   0.42466   1.000
    C164    C    0.22681   0.14498   0.42699   1.000
    C165    C    0.31179   0.17172   0.40282   1.000
    C166    C    0.31276   0.23924   0.37751   1.000
    C167    C    0.15784   0.05813   0.50311   1.000
    C168    C    0.16036   0.98983   0.52736   1.000
    C169    C    0.28802   0.94927   0.45736   1.000
    C170    C    0.29014   0.01607   0.43057   1.000
    C171    C    0.22444   0.07267   0.45350   1.000
    C172    C    0.92805   0.19287   0.57840   1.000
    C173    C    0.98009   0.19589   0.64567   1.000
    C174    C    0.99758   0.12742   0.66863   1.000
    C175    C    0.03714   0.12479   0.73338   1.000
    C176    C    0.05894   0.19156   0.77660   1.000
    C177    C    0.10008   0.19151   0.84757   1.000
    C178    C    0.04530   0.25995   0.75301   1.000
    C179    C    0.00000   0.26309   0.68746   1.000
    C180    C    0.03761   0.34313   0.59782   1.000
    C181    C    0.97867   0.38901   0.55468   1.000
    C182    C    0.00000   0.40001   0.71620   1.000
    C183    C    0.93506   0.40580   0.77526   1.000
    C184    C    0.71295   0.44525   0.00720   1.000
    C185    C    0.62413   0.40134   0.99828   1.000
    C186    C    0.60490   0.35560   0.04876   1.000
    C187    C    0.52980   0.30555   0.04190   1.000
    C188    C    0.47022   0.30205   0.98430   1.000
    C189    C    0.38340   0.25302   0.97888   1.000
    C190    C    0.48679   0.34825   0.93437   1.000
    C191    C    0.56243   0.39901   0.93980   1.000
    C192    C    0.59048   0.52670   0.91513   1.000
    C193    C    0.67067   0.56419   0.88170   1.000
    C194    C    0.51588   0.43676   0.82000   1.000
    C195    C    0.54675   0.37974   0.76260   1.000
    C196    C    0.84669   0.25765   0.89984   1.000
    C197    C    0.85399   0.18974   0.92465   1.000
    C198    C    0.77286   0.14511   0.92695   1.000
    C199    C    0.68784   0.17182   0.90276   1.000
    C200    C    0.68685   0.23936   0.87749   1.000
    C201    C    0.84203   0.05829   0.00305   1.000
    C202    C    0.83965   0.98996   0.02723   1.000
    C203    C    0.71180   0.94928   0.95717   1.000
    C204    C    0.70954   0.01612   0.93045   1.000
    C205    C    0.77530   0.07278   0.95349   1.000
    C206    C    0.92804   0.80734   0.92125   1.000
    C207    C    0.98029   0.80422   0.85418   1.000
    C208    C    0.99793   0.87259   0.83110   1.000
    C209    C    0.03777   0.87503   0.76646   1.000
    C210    C    0.06007   0.80817   0.72361   1.000
    C211    C    0.10156   0.80806   0.65279   1.000
    C212    C    0.04626   0.73989   0.74735   1.000
    C213    C    0.00000   0.73694   0.81275   1.000
    C214    C    0.03771   0.65717   0.90264   1.000
    C215    C    0.97872   0.61119   0.94559   1.000
    C216    C    0.00000   0.60002   0.78425   1.000
    C217    C    0.93525   0.59424   0.72500   1.000
    C218    C    0.71299   0.55491   0.49280   1.000
    C219    C    0.62422   0.59878   0.50168   1.000
    C220    C    0.60489   0.64451   0.45119   1.000
    C221    C    0.52985   0.69455   0.45799   1.000
    C222    C    0.47041   0.69800   0.51557   1.000
    C223    C    0.38363   0.74699   0.52106   1.000
    C224    C    0.48707   0.65181   0.56553   1.000
    C225    C    0.56263   0.60106   0.56011   1.000
    C226    C    0.59057   0.47337   0.58478   1.000
    C227    C    0.67072   0.43587   0.61827   1.000
    C228    C    0.51621   0.56326   0.67388   1.000
    C229    C    0.54714   0.62030   0.73731   1.000
    C230    C    0.84701   0.74253   0.60020   1.000
    C231    C    0.85429   0.81040   0.57532   1.000
    C232    C    0.77320   0.85503   0.57299   1.000
    C233    C    0.68822   0.82830   0.59717   1.000
    C234    C    0.68725   0.76081   0.62253   1.000
    C235    C    0.84215   0.94185   0.49682   1.000
    C236    C    0.83961   0.00000   0.47255   1.000
    C237    C    0.71196   0.05071   0.54256   1.000
    C238    C    0.70986   0.98392   0.56937   1.000
    C239    C    0.77555   0.92731   0.54636   1.000
    C240    C    0.00823   0.66614   0.33636   1.000
    C241    C    0.42344   0.55345   0.11127   1.000
    C242    C    0.23558   0.71743   0.12345   1.000
    C243    C    0.22426   0.06377   0.99490   1.000
    C244    C    0.00809   0.33366   0.16323   1.000
    C245    C    0.42320   0.44656   0.38874   1.000
    C246    C    0.23520   0.28249   0.37657   1.000
    C247    C    0.22420   0.93617   0.50522   1.000
    C248    C    0.99175   0.33381   0.66357   1.000
    C249    C    0.57656   0.44660   0.88870   1.000
    C250    C    0.76445   0.28263   0.87658   1.000
    C251    C    0.77577   0.93624   0.00504   1.000
    C252    C    0.99197   0.66632   0.83674   1.000
    C253    C    0.57681   0.55346   0.61122   1.000
    C254    C    0.76481   0.71756   0.62348   1.000
    C255    C    0.77578   0.06380   0.49469   1.000
    C256    C    0.15194   0.77086   0.42108   1.000
    C257    C    0.04123   0.84619   0.47491   1.000
    C258    C    0.86005   0.86897   0.14099   1.000
    C259    C    0.90488   0.74939   0.10819   1.000
    C260    C    0.11017   0.60676   0.43870   1.000
    C261    C    0.98007   0.57792   0.49097   1.000
    C262    C    0.14704   0.62506   0.24042   1.000
    C263    C    0.04500   0.55953   0.16650   1.000
    C264    C    0.25506   0.52773   0.93272   1.000
    C265    C    0.23830   0.54472   0.04640   1.000
    C266    C    0.62129   0.79993   0.98607   1.000
    C267    C    0.68323   0.73089   0.06120   1.000
    C268    C    0.27588   0.47120   0.16420   1.000
    C269    C    0.32041   0.36614   0.09629   1.000
    C270    C    0.37162   0.65302   0.23635   1.000
    C271    C    0.50990   0.62834   0.28645   1.000
    C272    C    0.15208   0.22880   0.07932   1.000
    C273    C    0.04127   0.15351   0.02523   1.000
    C274    C    0.86002   0.13103   0.35897   1.000
    C275    C    0.90177   0.25149   0.39091   1.000
    C276    C    0.11013   0.39309   0.06112   1.000
    C277    C    0.98001   0.42203   0.00875   1.000
    C278    C    0.14688   0.37489   0.25935   1.000
    C279    C    0.04493   0.44039   0.33304   1.000
    C280    C    0.25516   0.47222   0.56725   1.000
    C281    C    0.23827   0.45544   0.45355   1.000
    C282    C    0.62119   0.20009   0.51392   1.000
    C283    C    0.68276   0.26919   0.43877   1.000
    C284    C    0.27578   0.52880   0.33561   1.000
    C285    C    0.32050   0.63389   0.40359   1.000
    C286    C    0.37105   0.34697   0.26362   1.000
    C287    C    0.50939   0.37157   0.21367   1.000
    C288    C    0.84811   0.22910   0.57881   1.000
    C289    C    0.95880   0.15369   0.52505   1.000
    C290    C    0.13998   0.13104   0.85897   1.000
    C291    C    0.09514   0.25062   0.89176   1.000
    C292    C    0.88985   0.39326   0.56125   1.000
    C293    C    0.01999   0.42212   0.50902   1.000
    C294    C    0.85293   0.37494   0.75950   1.000
    C295    C    0.95500   0.44045   0.83336   1.000
    C296    C    0.74498   0.47228   0.06729   1.000
    C297    C    0.76166   0.45547   0.95359   1.000
    C298    C    0.37875   0.20010   0.01391   1.000
    C299    C    0.31682   0.26913   0.93877   1.000
    C300    C    0.72412   0.52884   0.83570   1.000
    C301    C    0.67960   0.63391   0.90365   1.000
    C302    C    0.62841   0.34701   0.76365   1.000
    C303    C    0.49014   0.37166   0.71353   1.000
    C304    C    0.84796   0.77121   0.92064   1.000
    C305    C    0.95877   0.84649   0.97474   1.000
    C306    C    0.13999   0.86895   0.64098   1.000
    C307    C    0.09827   0.74848   0.60907   1.000
    C308    C    0.88990   0.60693   0.93887   1.000
    C309    C    0.02001   0.57799   0.99125   1.000
    C310    C    0.85317   0.62511   0.74062   1.000
    C311    C    0.95511   0.55961   0.66690   1.000
    C312    C    0.74485   0.52779   0.43277   1.000
    C313    C    0.76182   0.54479   0.54646   1.000
    C314    C    0.37882   0.79994   0.48600   1.000
    C315    C    0.31724   0.73082   0.56119   1.000
    C316    C    0.72427   0.47124   0.66433   1.000
    C317    C    0.67954   0.36615   0.59636   1.000
    C318    C    0.62887   0.65303   0.73637   1.000
    C319    C    0.49052   0.62839   0.78628   1.000
    O320    O    0.40674   0.59989   0.03094   1.000
    O321    O    0.38552   0.62159   0.97646   1.000
    O322    O    0.33147   0.57679   0.99726   1.000
    O323    O    0.86900   0.07875   0.01289   1.000
    O324    O    0.84084   0.02413   0.01514   1.000
    O325    O    0.80866   0.06553   0.97827   1.000
    O326    O    0.80771   0.96310   0.01614   1.000
    O327    O    0.78368   0.87634   0.02088   1.000
    O328    O    0.74379   0.94276   0.98111   1.000
    O329    O    0.72897   0.45876   0.03725   1.000
    O330    O    0.73730   0.45036   0.98040   1.000
    O331    O    0.66854   0.42329   0.00274   1.000
    O332    O    0.92700   0.47288   0.01438   1.000
    O333    O    0.00066   0.40542   0.03158   1.000
    O334    O    0.38107   0.22656   0.99640   1.000
    O335    O    0.57324   0.72249   0.01835   1.000
    O336    O    0.52154   0.67489   0.04060   1.000
    O337    O    0.50004   0.69624   0.98682   1.000
    O338    O    0.80949   0.49801   0.04365   1.000
    O339    O    0.88195   0.56533   0.97944   1.000
    O340    O    0.81782   0.48960   0.98680   1.000
    O341    O    0.64994   0.73895   0.04115   1.000
    O342    O    0.61897   0.77347   0.00359   1.000
    O343    O    0.05664   0.17308   0.05198   1.000
    O344    O    0.86479   0.98325   0.04651   1.000
    O345    O    0.40372   0.46875   0.05679   1.000
    O346    O    0.73740   0.77367   0.04896   1.000
    O347    O    0.82582   0.84271   0.08885   1.000
    O348    O    0.56735   0.33057   0.04533   1.000
    O349    O    0.52201   0.28878   0.06204   1.000
    O350    O    0.50001   0.30380   0.01310   1.000
    O351    O    0.31322   0.07335   0.05089   1.000
    O352    O    0.28935   0.01732   0.05615   1.000
    O353    O    0.25624   0.05725   0.01884   1.000
    O354    O    0.18217   0.51052   0.01323   1.000
    O355    O    0.26268   0.54978   0.01960   1.000
    O356    O    0.25760   0.95557   0.05799   1.000
    O357    O    0.22595   0.89108   0.05974   1.000
    O358    O    0.19137   0.93448   0.02168   1.000
    O359    O    0.62756   0.35812   0.07154   1.000
    O360    O    0.61452   0.37847   0.02352   1.000
    O361    O    0.06572   0.39095   0.05776   1.000
    O362    O    0.99183   0.36581   0.07587   1.000
    O363    O    0.11159   0.81902   0.06691   1.000
    O364    O    0.47542   0.62642   0.06289   1.000
    O365    O    0.43052   0.57725   0.08572   1.000
    O366    O    0.11809   0.43471   0.02059   1.000
    O367    O    0.95724   0.31541   0.08117   1.000
    O368    O    0.53828   0.65364   0.08690   1.000
    O369    O    0.31664   0.98041   0.08923   1.000
    O370    O    0.18660   0.83260   0.07417   1.000
    O371    O    0.26968   0.84157   0.08511   1.000
    O372    O    0.14969   0.77634   0.08772   1.000
    O373    O    0.11205   0.21072   0.07902   1.000
    O374    O    0.04589   0.19421   0.11226   1.000
    O375    O    0.17260   0.28195   0.11453   1.000
    O376    O    0.44175   0.45772   0.08910   1.000
    O377    O    0.41648   0.51341   0.09805   1.000
    O378    O    0.36942   0.45461   0.10152   1.000
    O379    O    0.34527   0.84345   0.09622   1.000
    O380    O    0.32487   0.40099   0.10726   1.000
    O381    O    0.25676   0.35062   0.12301   1.000
    O382    O    0.31269   0.79446   0.10986   1.000
    O383    O    0.92686   0.35542   0.10135   1.000
    O384    O    0.98522   0.33823   0.13028   1.000
    O385    O    0.12218   0.72478   0.10114   1.000
    O386    O    0.19446   0.72991   0.11178   1.000
    O387    O    0.90241   0.77895   0.13025   1.000
    O388    O    0.34396   0.57695   0.13620   1.000
    O389    O    0.45378   0.55836   0.14263   1.000
    O390    O    0.30261   0.45352   0.14121   1.000
    O391    O    0.27438   0.73907   0.12298   1.000
    O392    O    0.34550   0.75019   0.13275   1.000
    O393    O    0.25003   0.65894   0.14229   1.000
    O394    O    0.01233   0.10167   0.15220   1.000
    O395    O    0.88000   0.83873   0.14665   1.000
    O396    O    0.01095   0.16158   0.15734   1.000
    O397    O    0.00585   0.22940   0.16651   1.000
    O398    O    0.17000   0.35500   0.20454   1.000
    O399    O    0.92051   0.80846   0.18783   1.000
    O400    O    0.27018   0.53582   0.16267   1.000
    O401    O    0.31805   0.62674   0.19874   1.000
    O402    O    0.52115   0.56889   0.16798   1.000
    O403    O    0.00001   0.29835   0.17523   1.000
    O404    O    0.00074   0.36681   0.18947   1.000
    O405    O    0.05496   0.57686   0.19558   1.000
    O406    O    0.98221   0.12617   0.20120   1.000
    O407    O    0.48480   0.53607   0.18315   1.000
    O408    O    0.46870   0.59177   0.20569   1.000
    O409    O    0.97286   0.26156   0.21993   1.000
    O410    O    0.99887   0.42491   0.20319   1.000
    O411    O    0.94462   0.71508   0.22926   1.000
    O412    O    0.48109   0.37563   0.23816   1.000
    O413    O    0.95720   0.40155   0.22629   1.000
    O414    O    0.02909   0.40286   0.24534   1.000
    O415    O    0.94789   0.77423   0.23514   1.000
    O416    O    0.95199   0.84181   0.24497   1.000
    O417    O    0.10598   0.60962   0.23253   1.000
    O418    O    0.02918   0.59707   0.25418   1.000
    O419    O    0.95527   0.09848   0.24253   1.000
    O420    O    0.95114   0.15838   0.25494   1.000
    O421    O    0.41245   0.63665   0.23687   1.000
    O422    O    0.48159   0.62431   0.26192   1.000
    O423    O    0.17002   0.64496   0.29531   1.000
    O424    O    0.97353   0.73845   0.27970   1.000
    O425    O    0.95593   0.90171   0.25763   1.000
    O426    O    0.94690   0.22595   0.26449   1.000
    O427    O    0.94355   0.28507   0.27014   1.000
    O428    O    0.10584   0.39032   0.26716   1.000
    O429    O    0.95727   0.59844   0.27304   1.000
    O430    O    0.41192   0.36333   0.26314   1.000
    O431    O    0.46828   0.40821   0.29436   1.000
    O432    O    0.31762   0.37325   0.30126   1.000
    O433    O    0.98268   0.87387   0.29895   1.000
    O434    O    0.05486   0.42307   0.30400   1.000
    O435    O    0.91924   0.19186   0.31177   1.000
    O436    O    0.99878   0.57496   0.29620   1.000
    O437    O    0.00083   0.63305   0.31003   1.000
    O438    O    0.48444   0.46392   0.31689   1.000
    O439    O    0.00029   0.70151   0.32442   1.000
    O440    O    0.00614   0.77047   0.33338   1.000
    O441    O    0.52080   0.43113   0.33211   1.000
    O442    O    0.45348   0.44165   0.35741   1.000
    O443    O    0.01119   0.83830   0.34280   1.000
    O444    O    0.01252   0.89822   0.34815   1.000
    O445    O    0.26999   0.46417   0.33725   1.000
    O446    O    0.30255   0.54648   0.35865   1.000
    O447    O    0.98531   0.66148   0.36924   1.000
    O448    O    0.24970   0.34102   0.35773   1.000
    O449    O    0.34369   0.42305   0.36382   1.000
    O450    O    0.87925   0.16147   0.35308   1.000
    O451    O    0.90013   0.22170   0.36905   1.000
    O452    O    0.25675   0.64937   0.37690   1.000
    O453    O    0.17247   0.71785   0.38564   1.000
    O454    O    0.04595   0.80556   0.38788   1.000
    O455    O    0.34507   0.24976   0.36729   1.000
    O456    O    0.82558   0.15733   0.41094   1.000
    O457    O    0.27398   0.26087   0.37704   1.000
    O458    O    0.19410   0.27000   0.38820   1.000
    O459    O    0.31227   0.20548   0.39017   1.000
    O460    O    0.32491   0.59903   0.39264   1.000
    O461    O    0.36940   0.54541   0.39843   1.000
    O462    O    0.41634   0.48661   0.40196   1.000
    O463    O    0.43029   0.42276   0.41430   1.000
    O464    O    0.84646   0.21756   0.42691   1.000
    O465    O    0.31625   0.01957   0.41086   1.000
    O466    O    0.53792   0.34638   0.41310   1.000
    O467    O    0.92695   0.64406   0.39796   1.000
    O468    O    0.12188   0.27512   0.39883   1.000
    O469    O    0.14936   0.22355   0.41225   1.000
    O470    O    0.95710   0.68419   0.41825   1.000
    O471    O    0.99187   0.63391   0.42369   1.000
    O472    O    0.34485   0.15650   0.40382   1.000
    O473    O    0.26930   0.15835   0.41491   1.000
    O474    O    0.62748   0.64200   0.42842   1.000
    O475    O    0.44174   0.54228   0.41092   1.000
    O476    O    0.40372   0.53128   0.44320   1.000
    O477    O    0.52202   0.71131   0.43787   1.000
    O478    O    0.11196   0.78896   0.42129   1.000
    O479    O    0.05660   0.82662   0.44820   1.000
    O480    O    0.18626   0.16729   0.42583   1.000
    O481    O    0.11128   0.18085   0.43309   1.000
    O482    O    0.22562   0.10883   0.44025   1.000
    O483    O    0.25729   0.04437   0.44204   1.000
    O484    O    0.28908   0.98267   0.44397   1.000
    O485    O    0.80932   0.50205   0.45644   1.000
    O486    O    0.72892   0.54135   0.46279   1.000
    O487    O    0.86470   0.01179   0.45327   1.000
    O488    O    0.47515   0.37359   0.43713   1.000
    O489    O    0.52125   0.32512   0.45920   1.000
    O490    O    0.06576   0.60888   0.44199   1.000
    O491    O    0.11820   0.56528   0.47932   1.000
    O492    O    0.73695   0.22642   0.45084   1.000
    O493    O    0.64956   0.26111   0.45884   1.000
    O494    O    0.40658   0.40012   0.46908   1.000
    O495    O    0.31302   0.92668   0.44918   1.000
    O496    O    0.00071   0.59446   0.46812   1.000
    O497    O    0.56737   0.66953   0.45459   1.000
    O498    O    0.61455   0.62164   0.47644   1.000
    O499    O    0.19114   0.06540   0.47831   1.000
    O500    O    0.26266   0.45032   0.48037   1.000
    O501    O    0.18225   0.48962   0.48675   1.000
    O502    O    0.25611   0.94272   0.48129   1.000
    O503    O    0.50013   0.69628   0.48678   1.000
    O504    O    0.78346   0.12372   0.47880   1.000
    O505    O    0.80770   0.03190   0.48362   1.000
    O506    O    0.84088   0.97092   0.48469   1.000
    O507    O    0.86910   0.92141   0.48696   1.000
    O508    O    0.57297   0.27752   0.48146   1.000
    O509    O    0.61877   0.22656   0.49642   1.000
    O510    O    0.92693   0.52711   0.48554   1.000
    O511    O    0.81781   0.51055   0.51328   1.000
    O512    O    0.88183   0.43478   0.52068   1.000
    O513    O    0.49986   0.30374   0.51299   1.000
    O514    O    0.38122   0.77346   0.50353   1.000
    O515    O    0.66860   0.57684   0.49724   1.000
    O516    O    0.73740   0.54985   0.51963   1.000
    O517    O    0.74387   0.05725   0.51863   1.000
    O518    O    0.80885   0.93458   0.52159   1.000
    O519    O    0.33142   0.42323   0.50274   1.000
    O520    O    0.38544   0.37840   0.52354   1.000
    O521    O    0.59342   0.59992   0.53090   1.000
    O522    O    0.13089   0.07856   0.51294   1.000
    O523    O    0.15910   0.02398   0.51524   1.000
    O524    O    0.19228   0.96300   0.51629   1.000
    O525    O    0.21652   0.87625   0.52110   1.000
    O526    O    0.27110   0.45870   0.53722   1.000
    O527    O    0.07311   0.47296   0.51448   1.000
    O528    O    0.99933   0.40557   0.53185   1.000
    O529    O    0.42702   0.72250   0.51832   1.000
    O530    O    0.47874   0.67490   0.54055   1.000
    O531    O    0.19069   0.49801   0.54360   1.000
    O532    O    0.35043   0.73891   0.54113   1.000
    O533    O    0.94342   0.17328   0.55173   1.000
    O534    O    0.13527   0.98310   0.54664   1.000
    O535    O    0.59633   0.46876   0.55675   1.000
    O536    O    0.26304   0.77358   0.54908   1.000
    O537    O    0.15355   0.78241   0.57302   1.000
    O538    O    0.17442   0.84264   0.58898   1.000
    O539    O    0.43262   0.33050   0.54537   1.000
    O540    O    0.47795   0.28871   0.56210   1.000
    O541    O    0.68696   0.07330   0.55065   1.000
    O542    O    0.71091   0.01732   0.55597   1.000
    O543    O    0.74270   0.95562   0.55787   1.000
    O544    O    0.77438   0.89117   0.55968   1.000
    O545    O    0.37251   0.35803   0.57155   1.000
    O546    O    0.93426   0.39114   0.55797   1.000
    O547    O    0.00814   0.36607   0.57625   1.000
    O548    O    0.88872   0.81915   0.56686   1.000
    O549    O    0.52485   0.62644   0.56282   1.000
    O550    O    0.56972   0.57726   0.58567   1.000
    O551    O    0.04285   0.31576   0.58167   1.000
    O552    O    0.46206   0.65364   0.58681   1.000
    O553    O    0.68376   0.98042   0.58909   1.000
    O554    O    0.81375   0.83271   0.57416   1.000
    O555    O    0.73071   0.84166   0.58508   1.000
    O556    O    0.85065   0.77647   0.58776   1.000
    O557    O    0.88808   0.21098   0.57861   1.000
    O558    O    0.95407   0.19438   0.61203   1.000
    O559    O    0.82756   0.28210   0.61423   1.000
    O560    O    0.55831   0.45773   0.58902   1.000
    O561    O    0.58369   0.51342   0.59800   1.000
    O562    O    0.63065   0.45462   0.60153   1.000
    O563    O    0.65515   0.84352   0.59617   1.000
    O564    O    0.67513   0.40101   0.60732   1.000
    O565    O    0.74328   0.35062   0.62301   1.000
    O566    O    0.68774   0.79455   0.60985   1.000
    O567    O    0.07305   0.35586   0.60196   1.000
    O568    O    0.01468   0.33847   0.63070   1.000
    O569    O    0.87813   0.72491   0.60121   1.000
    O570    O    0.80591   0.73005   0.61184   1.000
    O571    O    0.09991   0.77827   0.63093   1.000
    O572    O    0.65629   0.57699   0.63618   1.000
    O573    O    0.54651   0.55836   0.64255   1.000
    O574    O    0.69749   0.45356   0.64130   1.000
    O575    O    0.72603   0.73918   0.62301   1.000
    O576    O    0.65495   0.75030   0.63277   1.000
    O577    O    0.75029   0.65904   0.64231   1.000
    O578    O    0.98752   0.10174   0.64932   1.000
    O579    O    0.12077   0.83851   0.64689   1.000
    O580    O    0.98884   0.16165   0.65715   1.000
    O581    O    0.99005   0.22949   0.66657   1.000
    O582    O    0.82998   0.35502   0.70458   1.000
    O583    O    0.08081   0.80812   0.68820   1.000
    O584    O    0.73002   0.53588   0.66274   1.000
    O585    O    0.68233   0.62677   0.69876   1.000
    O586    O    0.47917   0.56885   0.66784   1.000
    O587    O    0.99588   0.29845   0.67552   1.000
    O588    O    0.99588   0.36691   0.68989   1.000
    O589    O    0.94518   0.57692   0.69595   1.000
    O590    O    0.01736   0.12611   0.70101   1.000
    O591    O    0.51553   0.53606   0.68305   1.000
    O592    O    0.53167   0.59178   0.70560   1.000
    O593    O    0.02265   0.26152   0.72024   1.000
    O594    O    0.99792   0.42500   0.70371   1.000
    O595    O    0.05651   0.71491   0.72984   1.000
    O596    O    0.51844   0.37570   0.73807   1.000
    O597    O    0.03944   0.40153   0.72687   1.000
    O598    O    0.96753   0.40290   0.74573   1.000
    O599    O    0.05317   0.77403   0.73548   1.000
    O600    O    0.04892   0.84160   0.74504   1.000
    O601    O    0.89421   0.60967   0.73281   1.000
    O602    O    0.96763   0.59713   0.75463   1.000
    O603    O    0.04412   0.09828   0.74233   1.000
    O604    O    0.04804   0.15818   0.75499   1.000
    O605    O    0.58800   0.63667   0.73684   1.000
    O606    O    0.51883   0.62435   0.76180   1.000
    O607    O    0.83006   0.64500   0.79541   1.000
    O608    O    0.02313   0.73842   0.78005   1.000
    O609    O    0.04478   0.90150   0.75744   1.000
    O610    O    0.05212   0.22576   0.76481   1.000
    O611    O    0.05537   0.28490   0.77066   1.000
    O612    O    0.89400   0.39037   0.76738   1.000
    O613    O    0.58758   0.36338   0.76313   1.000
    O614    O    0.53131   0.40825   0.79130   1.000
    O615    O    0.03952   0.59843   0.77368   1.000
    O616    O    0.68199   0.37331   0.80126   1.000
    O617    O    0.01785   0.87381   0.79878   1.000
    O618    O    0.94503   0.42312   0.80431   1.000
    O619    O    0.07951   0.19154   0.81209   1.000
    O620    O    0.99785   0.57506   0.79677   1.000
    O621    O    0.99599   0.63317   0.81050   1.000
    O622    O    0.51518   0.46395   0.81383   1.000
    O623    O    0.99599   0.70163   0.82475   1.000
    O624    O    0.99015   0.77058   0.83347   1.000
    O625    O    0.47885   0.43112   0.82900   1.000
    O626    O    0.54622   0.44168   0.85435   1.000
    O627    O    0.98911   0.83841   0.84264   1.000
    O628    O    0.98774   0.89831   0.84778   1.000
    O629    O    0.72984   0.46422   0.83728   1.000
    O630    O    0.69739   0.54652   0.85870   1.000
    O631    O    0.01484   0.66175   0.86969   1.000
    O632    O    0.75000   0.34112   0.85772   1.000
    O633    O    0.65606   0.42310   0.86378   1.000
    O634    O    0.12003   0.16128   0.85327   1.000
    O635    O    0.09761   0.22106   0.86967   1.000
    O636    O    0.74328   0.64939   0.87693   1.000
    O637    O    0.82746   0.71804   0.88542   1.000
    O638    O    0.95416   0.80578   0.88772   1.000
    O639    O    0.65453   0.24987   0.86726   1.000
    O640    O    0.17422   0.15731   0.91111   1.000
    O641    O    0.72565   0.26099   0.87704   1.000
    O642    O    0.80557   0.27014   0.88821   1.000
    O643    O    0.68734   0.20559   0.89013   1.000
    O644    O    0.67513   0.59905   0.89268   1.000
    O645    O    0.63057   0.54544   0.89842   1.000
    O646    O    0.58352   0.48665   0.90192   1.000
    O647    O    0.56950   0.42280   0.91425   1.000
    O648    O    0.68338   0.01961   0.91073   1.000
    O649    O    0.46175   0.34640   0.91308   1.000
    O650    O    0.07319   0.64453   0.89862   1.000
    O651    O    0.87785   0.27526   0.89884   1.000
    O652    O    0.85034   0.22370   0.91225   1.000
    O653    O    0.04283   0.68456   0.91880   1.000
    O654    O    0.00821   0.63418   0.92412   1.000
    O655    O    0.65476   0.15658   0.90374   1.000
    O656    O    0.73035   0.15846   0.91486   1.000
    O657    O    0.37249   0.64193   0.92843   1.000
    O658    O    0.55824   0.54233   0.91084   1.000
    O659    O    0.59627   0.53132   0.94316   1.000
    O660    O    0.47805   0.71126   0.93791   1.000
    O661    O    0.88800   0.78927   0.92095   1.000
    O662    O    0.94340   0.82691   0.94800   1.000
    O663    O    0.81342   0.16742   0.92580   1.000
    O664    O    0.88844   0.18100   0.93307   1.000
    O665    O    0.77408   0.10894   0.94022   1.000
    O666    O    0.74242   0.04445   0.94197   1.000
    O667    O    0.71067   0.98270   0.94381   1.000
    O668    O    0.19055   0.50203   0.95639   1.000
    O669    O    0.27106   0.54129   0.96276   1.000
    O670    O    0.13524   0.01173   0.95343   1.000
    O671    O    0.52461   0.37363   0.93709   1.000
    O672    O    0.47851   0.32515   0.95934   1.000
    O673    O    0.26264   0.22635   0.95101   1.000
    O674    O    0.35011   0.26107   0.95883   1.000
    O675    O    0.93431   0.60906   0.94223   1.000
    O676    O    0.59328   0.40017   0.96904   1.000
    O677    O    0.68680   0.92666   0.94907   1.000
    O678    O    0.99936   0.59459   0.96842   1.000
    O679    O    0.43270   0.66947   0.95462   1.000
    O680    O    0.21635   0.12367   0.97907   1.000
    O681    O    0.19232   0.03189   0.98381   1.000
    O682    O    0.15920   0.97086   0.98480   1.000
    O683    O    0.13103   0.92126   0.98706   1.000
    O684    O    0.42681   0.27753   0.98159   1.000
    O685    O    0.07303   0.52716   0.98566   1.000
    O686    O    0.18039   0.79360   0.47903   1.000
    O687    O    0.15158   0.63581   0.39445   1.000
    O688    O    0.05315   0.55086   0.50545   1.000
    O689    O    0.20576   0.61276   0.20078   1.000
    O690    O    0.25139   0.57259   0.10376   1.000
    O691    O    0.18027   0.20618   0.02128   1.000
    O692    O    0.15162   0.36410   0.10543   1.000
    O693    O    0.05302   0.44918   0.99441   1.000
    O694    O    0.20553   0.38721   0.29912   1.000
    O695    O    0.25123   0.42749   0.39622   1.000
    O696    O    0.81962   0.20637   0.52086   1.000
    O697    O    0.84844   0.36418   0.60545   1.000
    O698    O    0.94689   0.44921   0.49456   1.000
    O699    O    0.79425   0.38727   0.79918   1.000
    O700    O    0.74861   0.42754   0.89623   1.000
    O701    O    0.81977   0.79383   0.97868   1.000
    O702    O    0.84843   0.63590   0.89454   1.000
    O703    O    0.94700   0.55086   0.00562   1.000
    O704    O    0.79448   0.61281   0.70088   1.000
    O705    O    0.74880   0.57265   0.60380   1.000
loop_
    _geom_bond_atom_site_label_1
    _geom_bond_atom_site_label_2
    _geom_bond_distance
    _geom_bond_site_symmetry_2
    _ccdc_geom_bond_type
    C117   O320      0.71626      .   S
    C123   O320      0.71626      .   S
    C117   O321      0.70428  1_554   S
    C118   O321      0.70428      .   S
    C117   O322      0.74042  1_554   S
    C116   O322      0.74042      .   S
    C201   O323      0.54508      .   S
    C78    O323      0.54508      .   S
    C201   O324      0.69509      .   S
    C202   O324      0.69509  1_565   S
    C201   O325      0.70235  1_554   S
    C205   O325      0.70235      .   S
    C251   O326      0.67391      .   S
    C202   O326      0.67391      .   S
    C251   O327      1.17718      .   S
    C12    O327      1.17718      .   S
    C251   O328      0.67366  1_554   S
    C203   O328      0.67366      .   S
    C184   O329      0.64165      .   S
    C296   O329      0.64165      .   S
    C184   O330      0.64572  1_554   S
    C297   O330      0.64572      .   S
    C184   O331      0.74043      .   S
    C185   O331      0.74043  1_556   S
    C277   O332      1.17879      .   S
    C10    O332      1.17879      .   S
    C277   O333      0.64465  1_655   S
    C147   O333      0.64465      .   S
    C298   O334      0.63078  1_554   S
    C189   O334      0.63078      .   S
    C120   O335      0.75385      .   S
    C121   O335      0.75385      .   S
    C120   O336      0.69997      .   S
    C122   O336      0.69997      .   S
    C120   O337      0.69932  1_554   S
    C119   O337      0.69932      .   S
    C10    O338      1.15239      .   S
    C296   O338      1.15239      .   S
    C10    O339      1.17962  1_554   S
    C308   O339      1.17962      .   S
    C10    O340      1.14380  1_554   S
    C297   O340      1.14380      .   S
    C121   O341      0.64301      .   S
    C267   O341      0.64301      .   S
    C121   O342      0.63080      .   S
    C266   O342      0.63080  1_556   S
    C273   O343      0.62363      .   S
    C138   O343      0.62363      .   S
    C202   O344      0.54488      .   S
    C79    O344      0.54488      .   S
    C27    O345      0.54763      .   S
    C124   O345      0.54763      .   S
    C12    O346      1.13987      .   S
    C267   O346      1.13987      .   S
    C12    O347      1.16156      .   S
    C258   O347      1.16156      .   S
    C187   O348      0.69393      .   S
    C186   O348      0.69393      .   S
    C187   O349      0.54400      .   S
    C68    O349      0.54400      .   S
    C187   O350      0.69951      .   S
    C188   O350      0.69951  1_556   S
    C135   O351      0.54522      .   S
    C36    O351      0.54522      .   S
    C135   O352      0.69471      .   S
    C136   O352      0.69471  1_565   S
    C135   O353      0.67368      .   S
    C243   O353      0.67368  1_556   S
    C265   O354      1.14365      .   S
    C2     O354      1.14365  1_556   S
    C265   O355      0.64557      .   S
    C116   O355      0.64557  1_556   S
    C137   O356      0.70246      .   S
    C136   O356      0.70246      .   S
    C137   O357      0.74018      .   S
    C130   O357      0.74018      .   S
    C137   O358      0.70238      .   S
    C133   O358      0.70238  1_556   S
    C186   O359      0.54447      .   S
    C67    O359      0.54447      .   S
    C186   O360      0.70427      .   S
    C185   O360      0.70427  1_556   S
    C147   O361      0.63150      .   S
    C276   O361      0.63150      .   S
    C147   O362      0.75956  1_455   S
    C146   O362      0.75956      .   S
    C31    O363      0.54503      .   S
    C129   O363      0.54503      .   S
    C123   O364      0.70108      .   S
    C122   O364      0.70108      .   S
    C123   O365      0.71487      .   S
    C241   O365      0.71487      .   S
    C276   O366      1.17937      .   S
    C2     O366      1.17937  1_556   S
    C42    O367      0.54992      .   S
    C146   O367      0.54992      .   S
    C122   O368      0.54328      .   S
    C25    O368      0.54328      .   S
    C136   O369      0.54449      .   S
    C37    O369      0.54449      .   S
    C130   O370      0.70336      .   S
    C129   O370      0.70336      .   S
    C130   O371      0.70186      .   S
    C131   O371      0.70186      .   S
    C129   O372      0.69585      .   S
    C128   O372      0.69585      .   S
    C138   O373      0.65290      .   S
    C272   O373      0.65290      .   S
    C138   O374      0.74963      .   S
    C139   O374      0.74963      .   S
    C272   O375      1.13094      .   S
    C5     O375      1.13094      .   S
    C124   O376      0.54950      .   S
    C26    O376      0.54950      .   S
    C124   O377      0.73749      .   S
    C241   O377      0.73749      .   S
    C124   O378      0.75958      .   S
    C125   O378      0.75958      .   S
    C32    O379      0.54439      .   S
    C131   O379      0.54439      .   S
    C269   O380      0.63732      .   S
    C125   O380      0.63732      .   S
    C269   O381      1.09845      .   S
    C5     O381      1.09845      .   S
    C131   O382      0.69335      .   S
    C132   O382      0.69335      .   S
    C146   O383      0.55191      .   S
    C41    O383      0.55191      .   S
    C146   O384      0.73639      .   S
    C244   O384      0.73639  1_455   S
    C128   O385      0.54560      .   S
    C30    O385      0.54560      .   S
    C128   O386      0.67562      .   S
    C242   O386      0.67562      .   S
    C259   O387      0.63434      .   S
    C109   O387      0.63434      .   S
    C241   O388      1.27202      .   S
    C3     O388      1.27202      .   S
    C241   O389      0.74181      .   S
    C126   O389      0.74181      .   S
    C125   O390      0.63507      .   S
    C268   O390      0.63507      .   S
    C132   O391      0.67441      .   S
    C242   O391      0.67441      .   S
    C132   O392      0.54446      .   S
    C33    O392      0.54446      .   S
    C242   O393      1.19038      .   S
    C3     O393      1.19038      .   S
    C38    O394      0.54522      .   S
    C140   O394      0.54522      .   S
    C258   O395      0.63999      .   S
    C109   O395      0.63999      .   S
    C139   O396      0.70134      .   S
    C140   O396      0.70134      .   S
    C139   O397      0.70558      .   S
    C145   O397      0.70558  1_655   S
    C5     O398      1.12575      .   S
    C278   O398      1.12575      .   S
    C109   O399      0.75286      .   S
    C108   O399      0.75286      .   S
    C3     O400      1.17710      .   S
    C268   O400      1.17710      .   S
    C3     O401      1.10956      .   S
    C270   O401      1.10956      .   S
    C28    O402      0.54927      .   S
    C126   O402      0.54927      .   S
    C244   O403      0.72262      .   S
    C145   O403      0.72262  1_655   S
    C244   O404      0.73454      .   S
    C148   O404      0.73454  1_655   S
    C263   O405      0.62160      .   S
    C115   O405      0.62160      .   S
    C140   O406      0.69553  1_455   S
    C141   O406      0.69553      .   S
    C126   O407      0.54905      .   S
    C29    O407      0.54905      .   S
    C126   O408      0.77465      .   S
    C127   O408      0.77465      .   S
    C145   O409      0.69832      .   S
    C144   O409      0.69832      .   S
    C44    O410      0.55109  1_455   S
    C148   O410      0.55109      .   S
    C18    O411      0.54337      .   S
    C110   O411      0.54337      .   S
    C287   O412      0.61990      .   S
    C161   O412      0.61990      .   S
    C148   O413      0.55093      .   S
    C43    O413      0.55093      .   S
    C148   O414      0.76344  1_655   S
    C149   O414      0.76344      .   S
    C108   O415      0.69925      .   S
    C110   O415      0.69925      .   S
    C108   O416      0.69894      .   S
    C107   O416      0.69894      .   S
    C115   O417      0.65186      .   S
    C262   O417      0.65186      .   S
    C115   O418      0.76327      .   S
    C114   O418      0.76327  1_655   S
    C141   O419      0.54423      .   S
    C39    O419      0.54423      .   S
    C141   O420      0.69899      .   S
    C142   O420      0.69899      .   S
    C270   O421      0.64953      .   S
    C127   O421      0.64953      .   S
    C127   O422      0.61987      .   S
    C271   O422      0.61987      .   S
    C262   O423      1.12581      .   S
    C1     O423      1.12581      .   S
    C110   O424      0.69834      .   S
    C111   O424      0.69834      .   S
    C17    O425      0.54420      .   S
    C107   O425      0.54420      .   S
    C144   O426      0.69923      .   S
    C142   O426      0.69923      .   S
    C144   O427      0.54333      .   S
    C40    O427      0.54333      .   S
    C278   O428      0.65191      .   S
    C149   O428      0.65191      .   S
    C21    O429      0.55087      .   S
    C114   O429      0.55087      .   S
    C161   O430      0.64961      .   S
    C286   O430      0.64961      .   S
    C161   O431      0.77464      .   S
    C160   O431      0.77464      .   S
    C286   O432      1.10996      .   S
    C7     O432      1.10996      .   S
    C107   O433      0.69552      .   S
    C106   O433      0.69552  1_455   S
    C149   O434      0.62120      .   S
    C279   O434      0.62120      .   S
    C142   O435      0.75212      .   S
    C143   O435      0.75212      .   S
    C114   O436      0.55118      .   S
    C22    O436      0.55118  1_455   S
    C114   O437      0.73465  1_655   S
    C240   O437      0.73465      .   S
    C51    O438      0.54902      .   S
    C160   O438      0.54902      .   S
    C111   O439      0.72272  1_655   S
    C240   O439      0.72272      .   S
    C111   O440      0.70561  1_655   S
    C105   O440      0.70561      .   S
    C160   O441      0.54926      .   S
    C50    O441      0.54926      .   S
    C160   O442      0.74186      .   S
    C245   O442      0.74186      .   S
    C106   O443      0.70137      .   S
    C105   O443      0.70137      .   S
    C106   O444      0.54521      .   S
    C16    O444      0.54521      .   S
    C284   O445      1.17754      .   S
    C7     O445      1.17754      .   S
    C284   O446      0.63530      .   S
    C159   O446      0.63530      .   S
    C240   O447      0.73645  1_455   S
    C112   O447      0.73645      .   S
    C7     O448      1.19098      .   S
    C246   O448      1.19098      .   S
    C7     O449      1.27108      .   S
    C245   O449      1.27108      .   S
    C143   O450      0.64026      .   S
    C274   O450      0.64026      .   S
    C143   O451      0.63486      .   S
    C275   O451      0.63486      .   S
    C1     O452      1.09850      .   S
    C285   O452      1.09850      .   S
    C1     O453      1.13168      .   S
    C256   O453      1.13168      .   S
    C105   O454      0.74961      .   S
    C104   O454      0.74961      .   S
    C55    O455      0.54442      .   S
    C166   O455      0.54442      .   S
    C274   O456      1.16135      .   S
    C8     O456      1.16135      .   S
    C246   O457      0.67440      .   S
    C166   O457      0.67440      .   S
    C246   O458      0.67539      .   S
    C162   O458      0.67539      .   S
    C166   O459      0.69337      .   S
    C165   O459      0.69337      .   S
    C159   O460      0.63734      .   S
    C285   O460      0.63734      .   S
    C159   O461      0.75955      .   S
    C158   O461      0.75955      .   S
    C245   O462      0.73752      .   S
    C158   O462      0.73752      .   S
    C245   O463      0.71495      .   S
    C157   O463      0.71495      .   S
    C275   O464      1.27141      .   S
    C8     O464      1.27141      .   S
    C59    O465      0.54452      .   S
    C170   O465      0.54452      .   S
    C47    O466      0.54354      .   S
    C156   O466      0.54354      .   S
    C19    O467      0.55191      .   S
    C112   O467      0.55191      .   S
    C52    O468      0.54553      .   S
    C162   O468      0.54553      .   S
    C162   O469      0.69619      .   S
    C163   O469      0.69619      .   S
    C112   O470      0.54988      .   S
    C20    O470      0.54988      .   S
    C112   O471      0.75962      .   S
    C113   O471      0.75962  1_455   S
    C165   O472      0.54440      .   S
    C54    O472      0.54440      .   S
    C165   O473      0.70188      .   S
    C164   O473      0.70188      .   S
    C89    O474      0.54445      .   S
    C220   O474      0.54445      .   S
    C48    O475      0.54951      .   S
    C158   O475      0.54951      .   S
    C158   O476      0.54764      .   S
    C49    O476      0.54764      .   S
    C90    O477      0.54362      .   S
    C221   O477      0.54362      .   S
    C256   O478      0.65290      .   S
    C104   O478      0.65290      .   S
    C104   O479      0.62361      .   S
    C257   O479      0.62361      .   S
    C163   O480      0.70340      .   S
    C164   O480      0.70340      .   S
    C163   O481      0.54503      .   S
    C53    O481      0.54503      .   S
    C164   O482      0.73986      .   S
    C171   O482      0.73986      .   S
    C170   O483      0.70231      .   S
    C171   O483      0.70231      .   S
    C170   O484      0.69471  1_545   S
    C169   O484      0.69471      .   S
    C312   O485      1.15194      .   S
    C14    O485      1.15194      .   S
    C312   O486      0.64144      .   S
    C218   O486      0.64144      .   S
    C101   O487      0.58158      .   S
    C236   O487      0.58158      .   S
    C156   O488      0.70101      .   S
    C157   O488      0.70101      .   S
    C156   O489      0.69698      .   S
    C154   O489      0.69698      .   S
    C260   O490      0.63150      .   S
    C113   O490      0.63150      .   S
    C260   O491      1.17891      .   S
    C6     O491      1.17891      .   S
    C283   O492      1.13898      .   S
    C8     O492      1.13898      .   S
    C283   O493      0.64297      .   S
    C155   O493      0.64297      .   S
    C157   O494      0.71634      .   S
    C151   O494      0.71634      .   S
    C58    O495      0.54557      .   S
    C169   O495      0.54557      .   S
    C113   O496      0.64461      .   S
    C261   O496      0.64461  1_655   S
    C220   O497      0.69397      .   S
    C221   O497      0.69397      .   S
    C220   O498      0.70427      .   S
    C219   O498      0.70427      .   S
    C171   O499      0.70289      .   S
    C167   O499      0.70289      .   S
    C281   O500      0.64564      .   S
    C150   O500      0.64564      .   S
    C281   O501      1.14407      .   S
    C6     O501      1.14407      .   S
    C169   O502      0.67364      .   S
    C247   O502      0.67364      .   S
    C221   O503      0.69959      .   S
    C222   O503      0.69959      .   S
    C8     O504      1.17778      .   S
    C255   O504      1.17778      .   S
    C236   O505      0.73859      .   S
    C255   O505      0.73859      .   S
    C236   O506      0.60966  1_545   S
    C235   O506      0.60966      .   S
    C100   O507      0.54529      .   S
    C235   O507      0.54529      .   S
    C155   O508      0.75396      .   S
    C154   O508      0.75396      .   S
    C155   O509      0.63085      .   S
    C282   O509      0.63085      .   S
    C14    O510      1.17870      .   S
    C261   O510      1.17870      .   S
    C14    O511      1.14417      .   S
    C313   O511      1.14417      .   S
    C14    O512      1.17873      .   S
    C292   O512      1.17873      .   S
    C154   O513      0.70268      .   S
    C153   O513      0.70268      .   S
    C314   O514      0.63123      .   S
    C223   O514      0.63123      .   S
    C218   O515      0.74046      .   S
    C219   O515      0.74046      .   S
    C218   O516      0.64577      .   S
    C313   O516      0.64577      .   S
    C255   O517      0.67367      .   S
    C237   O517      0.67367      .   S
    C235   O518      0.70235      .   S
    C239   O518      0.70235      .   S
    C151   O519      0.74048      .   S
    C150   O519      0.74048      .   S
    C151   O520      0.70424      .   S
    C152   O520      0.70424      .   S
    C219   O521      0.71630      .   S
    C225   O521      0.71630      .   S
    C167   O522      0.54512      .   S
    C56    O522      0.54512      .   S
    C167   O523      0.69517      .   S
    C168   O523      0.69517  1_565   S
    C247   O524      0.67388      .   S
    C168   O524      0.67388      .   S
    C247   O525      1.17753      .   S
    C0     O525      1.17753      .   S
    C150   O526      0.64165      .   S
    C280   O526      0.64165      .   S
    C293   O527      1.17899      .   S
    C6     O527      1.17899      .   S
    C293   O528      0.64455  1_455   S
    C181   O528      0.64455      .   S
    C222   O529      0.75384      .   S
    C223   O529      0.75384      .   S
    C222   O530      0.69973      .   S
    C224   O530      0.69973      .   S
    C6     O531      1.15211      .   S
    C280   O531      1.15211      .   S
    C223   O532      0.64294      .   S
    C315   O532      0.64294      .   S
    C289   O533      0.62326      .   S
    C172   O533      0.62326      .   S
    C168   O534      0.54491      .   S
    C57    O534      0.54491      .   S
    C93    O535      0.54767      .   S
    C226   O535      0.54767      .   S
    C0     O536      1.13911      .   S
    C315   O536      1.13911      .   S
    C0     O537      1.27190      .   S
    C307   O537      1.27190      .   S
    C0     O538      1.16188      .   S
    C306   O538      1.16188      .   S
    C153   O539      0.69397      .   S
    C152   O539      0.69397      .   S
    C153   O540      0.54367      .   S
    C46    O540      0.54367      .   S
    C237   O541      0.54524      .   S
    C102   O541      0.54524      .   S
    C237   O542      0.69470      .   S
    C238   O542      0.69470  1_565   S
    C239   O543      0.70246      .   S
    C238   O543      0.70246      .   S
    C239   O544      0.74024      .   S
    C232   O544      0.74024      .   S
    C152   O545      0.54453      .   S
    C45    O545      0.54453      .   S
    C181   O546      0.63154      .   S
    C292   O546      0.63154      .   S
    C181   O547      0.75969  1_655   S
    C180   O547      0.75969      .   S
    C97    O548      0.54521      .   S
    C231   O548      0.54521      .   S
    C225   O549      0.70101      .   S
    C224   O549      0.70101      .   S
    C225   O550      0.71494      .   S
    C253   O550      0.71494      .   S
    C64    O551      0.54992      .   S
    C180   O551      0.54992      .   S
    C224   O552      0.54321      .   S
    C91    O552      0.54321      .   S
    C238   O553      0.54453      .   S
    C103   O553      0.54453      .   S
    C232   O554      0.70341      .   S
    C231   O554      0.70341      .   S
    C232   O555      0.70189      .   S
    C233   O555      0.70189      .   S
    C231   O556      0.69615      .   S
    C230   O556      0.69615      .   S
    C172   O557      0.65291      .   S
    C288   O557      0.65291      .   S
    C172   O558      0.74997      .   S
    C173   O558      0.74997      .   S
    C288   O559      1.13153      .   S
    C9     O559      1.13153      .   S
    C226   O560      0.54949      .   S
    C92    O560      0.54949      .   S
    C226   O561      0.73749      .   S
    C253   O561      0.73749      .   S
    C226   O562      0.75953      .   S
    C227   O562      0.75953      .   S
    C98    O563      0.54440      .   S
    C233   O563      0.54440      .   S
    C317   O564      0.63736      .   S
    C227   O564      0.63736      .   S
    C317   O565      1.09813      .   S
    C9     O565      1.09813      .   S
    C233   O566      0.69333      .   S
    C234   O566      0.69333      .   S
    C180   O567      0.55189      .   S
    C63    O567      0.55189      .   S
    C180   O568      0.73646      .   S
    C248   O568      0.73646  1_655   S
    C230   O569      0.54554      .   S
    C96    O569      0.54554      .   S
    C230   O570      0.67539      .   S
    C254   O570      0.67539      .   S
    C307   O571      0.63486      .   S
    C211   O571      0.63486      .   S
    C253   O572      1.27115      .   S
    C15    O572      1.27115      .   S
    C253   O573      0.74192      .   S
    C228   O573      0.74192      .   S
    C227   O574      0.63528      .   S
    C316   O574      0.63528      .   S
    C234   O575      0.67439      .   S
    C254   O575      0.67439      .   S
    C234   O576      0.54445      .   S
    C99    O576      0.54445      .   S
    C254   O577      1.19094      .   S
    C15    O577      1.19094      .   S
    C60    O578      0.56989      .   S
    C174   O578      0.56989      .   S
    C306   O579      0.64028      .   S
    C211   O579      0.64028      .   S
    C173   O580      0.70138      .   S
    C174   O580      0.70138      .   S
    C173   O581      0.69276      .   S
    C179   O581      0.69276  1_455   S
    C9     O582      1.12641      .   S
    C294   O582      1.12641      .   S
    C211   O583      0.75203      .   S
    C210   O583      0.75203      .   S
    C15    O584      1.17745      .   S
    C316   O584      1.17745      .   S
    C15    O585      1.10982      .   S
    C318   O585      1.10982      .   S
    C94    O586      0.54928      .   S
    C228   O586      0.54928      .   S
    C248   O587      0.71631      .   S
    C179   O587      0.71631  1_455   S
    C248   O588      0.72946      .   S
    C182   O588      0.72946  1_455   S
    C311   O589      0.62134      .   S
    C217   O589      0.62134      .   S
    C174   O590      0.69545  1_655   S
    C175   O590      0.69545      .   S
    C228   O591      0.54901      .   S
    C95    O591      0.54901      .   S
    C228   O592      0.77459      .   S
    C229   O592      0.77459      .   S
    C179   O593      0.72050      .   S
    C178   O593      0.72050      .   S
    C66    O594      0.54664      .   S
    C182   O594      0.54664  1_455   S
    C84    O595      0.54328      .   S
    C212   O595      0.54328      .   S
    C303   O596      0.61988      .   S
    C195   O596      0.61988      .   S
    C182   O597      0.59405      .   S
    C65    O597      0.59405      .   S
    C182   O598      0.73350  1_455   S
    C183   O598      0.73350      .   S
    C210   O599      0.69924      .   S
    C212   O599      0.69924      .   S
    C210   O600      0.69904      .   S
    C209   O600      0.69904      .   S
    C217   O601      0.65192      .   S
    C310   O601      0.65192      .   S
    C217   O602      0.73326      .   S
    C216   O602      0.73326  1_455   S
    C175   O603      0.54423      .   S
    C61    O603      0.54423      .   S
    C175   O604      0.69899      .   S
    C176   O604      0.69899      .   S
    C318   O605      0.64960      .   S
    C229   O605      0.64960      .   S
    C229   O606      0.61992      .   S
    C319   O606      0.61992      .   S
    C310   O607      1.12533      .   S
    C13    O607      1.12533      .   S
    C212   O608      0.72254      .   S
    C213   O608      0.72254      .   S
    C83    O609      0.54425      .   S
    C209   O609      0.54425      .   S
    C178   O610      0.69931      .   S
    C176   O610      0.69931      .   S
    C178   O611      0.54332      .   S
    C62    O611      0.54332      .   S
    C294   O612      0.65185      .   S
    C183   O612      0.65185      .   S
    C195   O613      0.64952      .   S
    C302   O613      0.64952      .   S
    C195   O614      0.73489      .   S
    C194   O614      0.73489      .   S
    C87    O615      0.59488      .   S
    C216   O615      0.59488      .   S
    C302   O616      1.10963      .   S
    C11    O616      1.10963      .   S
    C209   O617      0.69554      .   S
    C208   O617      0.69554  1_655   S
    C183   O618      0.62120      .   S
    C295   O618      0.62120      .   S
    C176   O619      0.75206      .   S
    C177   O619      0.75206      .   S
    C216   O620      0.54645  1_455   S
    C88    O620      0.54645      .   S
    C216   O621      0.72935  1_455   S
    C252   O621      0.72935      .   S
    C73    O622      0.52441      .   S
    C194   O622      0.52441      .   S
    C213   O623      0.71581  1_455   S
    C252   O623      0.71581      .   S
    C213   O624      0.69168  1_455   S
    C207   O624      0.69168      .   S
    C194   O625      0.56637      .   S
    C72    O625      0.56637      .   S
    C194   O626      0.78987      .   S
    C249   O626      0.78987      .   S
    C208   O627      0.70132      .   S
    C207   O627      0.70132      .   S
    C208   O628      0.54519      .   S
    C82    O628      0.54519      .   S
    C300   O629      1.17709      .   S
    C11    O629      1.17709      .   S
    C300   O630      0.63524      .   S
    C193   O630      0.63524      .   S
    C252   O631      0.73640  1_655   S
    C214   O631      0.73640      .   S
    C11    O632      1.19050      .   S
    C250   O632      1.19050      .   S
    C11    O633      1.27218      .   S
    C249   O633      1.27218      .   S
    C177   O634      0.64025      .   S
    C290   O634      0.64025      .   S
    C177   O635      0.63478      .   S
    C291   O635      0.63478      .   S
    C13    O636      1.09871      .   S
    C301   O636      1.09871      .   S
    C13    O637      1.13110      .   S
    C304   O637      1.13110      .   S
    C207   O638      0.74965      .   S
    C206   O638      0.74965      .   S
    C77    O639      0.54445      .   S
    C200   O639      0.54445      .   S
    C290   O640      1.16149      .   S
    C4     O640      1.16149      .   S
    C250   O641      0.67441      .   S
    C200   O641      0.67441      .   S
    C250   O642      0.67535      .   S
    C196   O642      0.67535      .   S
    C200   O643      0.69333      .   S
    C199   O643      0.69333      .   S
    C193   O644      0.63736      .   S
    C301   O644      0.63736      .   S
    C193   O645      0.75970      .   S
    C192   O645      0.75970      .   S
    C249   O646      0.73748      .   S
    C192   O646      0.73748      .   S
    C249   O647      0.71483      .   S
    C191   O647      0.71483      .   S
    C81    O648      0.54454      .   S
    C204   O648      0.54454      .   S
    C69    O649      0.54316      .   S
    C190   O649      0.54316      .   S
    C85    O650      0.55192      .   S
    C214   O650      0.55192      .   S
    C74    O651      0.54551      .   S
    C196   O651      0.54551      .   S
    C196   O652      0.69619      .   S
    C197   O652      0.69619      .   S
    C214   O653      0.54992      .   S
    C86    O653      0.54992      .   S
    C214   O654      0.75958      .   S
    C215   O654      0.75958  1_655   S
    C199   O655      0.54440      .   S
    C76    O655      0.54440      .   S
    C199   O656      0.70187      .   S
    C198   O656      0.70187      .   S
    C23    O657      0.54448      .   S
    C118   O657      0.54448      .   S
    C70    O658      0.54952      .   S
    C192   O658      0.54952      .   S
    C192   O659      0.54762      .   S
    C71    O659      0.54762      .   S
    C24    O660      0.54360      .   S
    C119   O660      0.54360      .   S
    C304   O661      0.65290      .   S
    C206   O661      0.65290      .   S
    C206   O662      0.62361      .   S
    C305   O662      0.62361      .   S
    C197   O663      0.70336      .   S
    C198   O663      0.70336      .   S
    C197   O664      0.54503      .   S
    C75    O664      0.54503      .   S
    C198   O665      0.74020      .   S
    C205   O665      0.74020      .   S
    C204   O666      0.70246      .   S
    C205   O666      0.70246      .   S
    C204   O667      0.69467  1_545   S
    C203   O667      0.69467      .   S
    C264   O668      1.15244      .   S
    C2     O668      1.15244      .   S
    C264   O669      0.64166      .   S
    C116   O669      0.64166      .   S
    C35    O670      0.58115      .   S
    C134   O670      0.58115      .   S
    C190   O671      0.70110      .   S
    C191   O671      0.70110      .   S
    C190   O672      0.69955      .   S
    C188   O672      0.69955      .   S
    C299   O673      1.13983      .   S
    C4     O673      1.13983      .   S
    C299   O674      0.64306      .   S
    C189   O674      0.64306      .   S
    C308   O675      0.63148      .   S
    C215   O675      0.63148      .   S
    C191   O676      0.71635      .   S
    C185   O676      0.71635      .   S
    C80    O677      0.54521      .   S
    C203   O677      0.54521      .   S
    C215   O678      0.64460      .   S
    C309   O678      0.64460  1_455   S
    C118   O679      0.69393      .   S
    C119   O679      0.69393      .   S
    C4     O680      1.17718      .   S
    C243   O680      1.17718      .   S
    C134   O681      0.73804      .   S
    C243   O681      0.73804      .   S
    C134   O682      0.61025  1_545   S
    C133   O682      0.61025      .   S
    C34    O683      0.54507      .   S
    C133   O683      0.54507      .   S
    C189   O684      0.75392      .   S
    C188   O684      0.75392      .   S
    C2     O685      1.17864      .   S
    C309   O685      1.17864      .   S
    C256   O686      1.21258      .   S
    C0     O686      1.21258      .   S
    C260   O687      1.22787      .   S
    C1     O687      1.22787      .   S
    C261   O688      1.19539  1_655   S
    C6     O688      1.19539      .   S
    C262   O689      1.13480      .   S
    C3     O689      1.13480      .   S
    C265   O690      1.17151      .   S
    C3     O690      1.17151      .   S
    C272   O691      1.21351      .   S
    C4     O691      1.21351  1_556   S
    C276   O692      1.22802      .   S
    C5     O692      1.22802      .   S
    C277   O693      1.19466  1_654   S
    C2     O693      1.19466      .   S
    C278   O694      1.13429      .   S
    C7     O694      1.13429      .   S
    C281   O695      1.17151      .   S
    C7     O695      1.17151      .   S
    C288   O696      1.21287      .   S
    C8     O696      1.21287      .   S
    C292   O697      1.22749      .   S
    C9     O697      1.22749      .   S
    C293   O698      1.19562  1_455   S
    C14    O698      1.19562      .   S
    C294   O699      1.13491      .   S
    C11    O699      1.13491      .   S
    C297   O700      1.17176      .   S
    C11    O700      1.17176      .   S
    C304   O701      1.21346      .   S
    C12    O701      1.21346  1_554   S
    C308   O702      1.22818      .   S
    C13    O702      1.22818      .   S
    C309   O703      1.19455  1_456   S
    C10    O703      1.19455      .   S
    C310   O704      1.13429      .   S
    C15    O704      1.13429      .   S
    C313   O705      1.17136      .   S
    C15    O705      1.17136      .   S
