# CIF file generated by openbabel 2.4.90, see http://openbabel.sf.net
data_I
_chemical_name_common 'VESTA_phase_1'
_cell_length_a 13.172
_cell_length_b 13.948
_cell_length_c 16.991
_cell_angle_alpha 90.05
_cell_angle_beta 90.016
_cell_angle_gamma 90.246
_space_group_name_H-M_alt 'P 1'
_space_group_name_Hall 'P 1'
loop_
    _symmetry_equiv_pos_as_xyz
    x,y,z
loop_
    _atom_site_label
    _atom_site_type_symbol
    _atom_site_fract_x
    _atom_site_fract_y
    _atom_site_fract_z
    _atom_site_occupancy
    Zn0     Zn   0.42612   0.97961   0.40648   1.000
    Zn1     Zn   0.47619   0.90842   0.07322   1.000
    Zn2     Zn   0.57406   0.52009   0.90666   1.000
    Zn3     Zn   0.52398   0.59159   0.57310   1.000
    Zn4     Zn   0.92518   0.02009   0.09364   1.000
    Zn5     Zn   0.97779   0.09148   0.42671   1.000
    Zn6     Zn   0.07504   0.48014   0.59354   1.000
    Zn7     Zn   0.02236   0.40845   0.92681   1.000
    Zn8     Zn   0.57391   0.02037   0.59351   1.000
    Zn9     Zn   0.52384   0.09156   0.92677   1.000
    Zn10    Zn   0.42596   0.47989   0.09333   1.000
    Zn11    Zn   0.47604   0.40839   0.42689   1.000
    Zn12    Zn   0.07485   0.97989   0.90635   1.000
    Zn13    Zn   0.02223   0.90850   0.57328   1.000
    Zn14    Zn   0.92499   0.51984   0.40645   1.000
    Zn15    Zn   0.97767   0.59153   0.07318   1.000
    H16     H    0.25904   0.86026   0.50800   1.000
    H17     H    0.44160   0.19883   0.34841   1.000
    H18     H    0.15294   0.14990   0.33424   1.000
    H19     H    0.27552   0.11092   0.31793   1.000
    H20     H    0.56191   0.22927   0.63815   1.000
    H21     H    0.56716   0.33855   0.59124   1.000
    H22     H    0.74068   0.63890   0.00873   1.000
    H23     H    0.55831   0.30109   0.84854   1.000
    H24     H    0.84764   0.34991   0.83404   1.000
    H25     H    0.72476   0.38850   0.81779   1.000
    H26     H    0.43835   0.27027   0.13858   1.000
    H27     H    0.43434   0.16086   0.09110   1.000
    H28     H    0.75984   0.14018   0.99312   1.000
    H29     H    0.94115   0.80087   0.15159   1.000
    H30     H    0.65101   0.84937   0.16554   1.000
    H31     H    0.77383   0.88848   0.18224   1.000
    H32     H    0.06118   0.77130   0.86201   1.000
    H33     H    0.06692   0.66226   0.90899   1.000
    H34     H    0.23973   0.36064   0.49213   1.000
    H35     H    0.05839   0.69908   0.65177   1.000
    H36     H    0.34975   0.65063   0.66560   1.000
    H37     H    0.22673   0.61180   0.68236   1.000
    H38     H    0.93900   0.72913   0.36175   1.000
    H39     H    0.93422   0.83824   0.40931   1.000
    H40     H    0.74099   0.13972   0.49200   1.000
    H41     H    0.55842   0.80115   0.65158   1.000
    H42     H    0.84709   0.85008   0.66575   1.000
    H43     H    0.72451   0.88906   0.68206   1.000
    H44     H    0.43810   0.77071   0.36185   1.000
    H45     H    0.43285   0.66143   0.40876   1.000
    H46     H    0.25935   0.36107   0.99126   1.000
    H47     H    0.44171   0.69888   0.15145   1.000
    H48     H    0.15238   0.65007   0.16596   1.000
    H49     H    0.27526   0.61147   0.18221   1.000
    H50     H    0.56167   0.72971   0.86141   1.000
    H51     H    0.56568   0.83912   0.90889   1.000
    H52     H    0.24018   0.85981   0.00688   1.000
    H53     H    0.05887   0.19911   0.84840   1.000
    H54     H    0.34902   0.15062   0.83446   1.000
    H55     H    0.22619   0.11151   0.81776   1.000
    H56     H    0.93884   0.22868   0.13798   1.000
    H57     H    0.93310   0.33771   0.09100   1.000
    H58     H    0.76028   0.63934   0.50785   1.000
    H59     H    0.94162   0.30090   0.34822   1.000
    H60     H    0.65027   0.34935   0.33434   1.000
    H61     H    0.77329   0.38818   0.31763   1.000
    H62     H    0.06100   0.27085   0.63824   1.000
    H63     H    0.06579   0.16174   0.59068   1.000
    C64     C    0.46662   0.91506   0.24410   1.000
    C65     C    0.42201   0.01324   0.22031   1.000
    C66     C    0.20143   0.04652   0.40770   1.000
    C67     C    0.22421   0.92176   0.47998   1.000
    C68     C    0.53077   0.22017   0.52270   1.000
    C69     C    0.47051   0.19040   0.40759   1.000
    C70     C    0.53667   0.58357   0.74360   1.000
    C71     C    0.57856   0.48408   0.72000   1.000
    C72     C    0.79890   0.45327   0.90772   1.000
    C73     C    0.77569   0.57764   0.98045   1.000
    C74     C    0.47023   0.27957   0.02309   1.000
    C75     C    0.52980   0.30945   0.90784   1.000
    C76     C    0.96819   0.08478   0.25568   1.000
    C77     C    0.92248   0.98666   0.27948   1.000
    C78     C    0.70036   0.95337   0.09262   1.000
    C79     C    0.72440   0.07856   0.02089   1.000
    C80     C    0.03072   0.78031   0.97740   1.000
    C81     C    0.97015   0.80953   0.09245   1.000
    C82     C    0.03485   0.41601   0.75614   1.000
    C83     C    0.07820   0.51523   0.77972   1.000
    C84     C    0.30003   0.54669   0.59255   1.000
    C85     C    0.27542   0.42198   0.52023   1.000
    C86     C    0.97000   0.71987   0.47729   1.000
    C87     C    0.02981   0.69051   0.59247   1.000
    C88     C    0.53341   0.08492   0.75589   1.000
    C89     C    0.57800   0.98674   0.77968   1.000
    C90     C    0.79859   0.95346   0.59222   1.000
    C91     C    0.77582   0.07823   0.52002   1.000
    C92     C    0.46924   0.77981   0.47729   1.000
    C93     C    0.52951   0.80958   0.59240   1.000
    C94     C    0.46337   0.41641   0.25600   1.000
    C95     C    0.42146   0.51590   0.27999   1.000
    C96     C    0.20113   0.54671   0.09227   1.000
    C97     C    0.22433   0.42234   0.01950   1.000
    C98     C    0.52979   0.72040   0.97690   1.000
    C99     C    0.47023   0.69053   0.09210   1.000
    C100    C    0.03184   0.91520   0.74431   1.000
    C101    C    0.07754   0.01332   0.72051   1.000
    C102    C    0.29967   0.04661   0.90738   1.000
    C103    C    0.27562   0.92143   0.97911   1.000
    C104    C    0.96930   0.21967   0.02251   1.000
    C105    C    0.02987   0.19045   0.90754   1.000
    C106    C    0.96518   0.58397   0.24385   1.000
    C107    C    0.92182   0.48475   0.22027   1.000
    C108    C    0.69999   0.45329   0.40744   1.000
    C109    C    0.72460   0.57800   0.47970   1.000
    C110    C    0.03001   0.28011   0.52270   1.000
    C111    C    0.97021   0.30947   0.40752   1.000
    N112    N    0.27318   0.98009   0.42802   1.000
    N113    N    0.12906   0.94843   0.49208   1.000
    N114    N    0.11372   0.02964   0.44613   1.000
    N115    N    0.21759   0.12130   0.35776   1.000
    N116    N    0.52447   0.12363   0.51590   1.000
    N117    N    0.48502   0.10568   0.44100   1.000
    N118    N    0.49732   0.26411   0.45556   1.000
    N119    N    0.57129   0.26544   0.58621   1.000
    N120    N    0.72692   0.51934   0.92827   1.000
    N121    N    0.87094   0.55121   0.99243   1.000
    N122    N    0.88657   0.47032   0.94611   1.000
    N123    N    0.78302   0.37862   0.85744   1.000
    N124    N    0.47610   0.37617   0.01637   1.000
    N125    N    0.51511   0.39417   0.94139   1.000
    N126    N    0.50357   0.23574   0.95580   1.000
    N127    N    0.43029   0.23395   0.08653   1.000
    N128    N    0.77273   0.01988   0.07263   1.000
    N129    N    0.62901   0.05202   0.00870   1.000
    N130    N    0.61279   0.97061   0.05436   1.000
    N131    N    0.71590   0.87826   0.14220   1.000
    N132    N    0.02416   0.87676   0.98420   1.000
    N133    N    0.98439   0.89438   0.05891   1.000
    N134    N    0.99740   0.73605   0.04460   1.000
    N135    N    0.07139   0.73539   0.91396   1.000
    N136    N    0.22737   0.48062   0.57219   1.000
    N137    N    0.37093   0.44821   0.50823   1.000
    N138    N    0.38752   0.52927   0.55430   1.000
    N139    N    0.28484   0.62165   0.64252   1.000
    N140    N    0.97627   0.62336   0.48388   1.000
    N141    N    0.01554   0.60567   0.55878   1.000
    N142    N    0.00309   0.76401   0.54459   1.000
    N143    N    0.92981   0.76512   0.41382   1.000
    N144    N    0.72685   0.01989   0.57197   1.000
    N145    N    0.87097   0.05155   0.50791   1.000
    N146    N    0.88631   0.97035   0.55386   1.000
    N147    N    0.78244   0.87868   0.64224   1.000
    N148    N    0.47555   0.87635   0.48409   1.000
    N149    N    0.51501   0.89430   0.55893   1.000
    N150    N    0.50270   0.73587   0.54444   1.000
    N151    N    0.42872   0.73454   0.41370   1.000
    N152    N    0.27311   0.48063   0.07172   1.000
    N153    N    0.12909   0.44877   0.00756   1.000
    N154    N    0.11345   0.52966   0.05388   1.000
    N155    N    0.21700   0.62136   0.14256   1.000
    N156    N    0.52392   0.62381   0.98362   1.000
    N157    N    0.48491   0.60581   0.05860   1.000
    N158    N    0.49645   0.76424   0.04416   1.000
    N159    N    0.56973   0.76603   0.91346   1.000
    N160    N    0.22729   0.98011   0.92737   1.000
    N161    N    0.37101   0.94796   0.99129   1.000
    N162    N    0.38723   0.02937   0.94564   1.000
    N163    N    0.28412   0.12173   0.85770   1.000
    N164    N    0.97586   0.12322   0.01579   1.000
    N165    N    0.01563   0.10560   0.94108   1.000
    N166    N    0.00262   0.26393   0.95539   1.000
    N167    N    0.92863   0.26459   0.08603   1.000
    N168    N    0.77265   0.51937   0.42779   1.000
    N169    N    0.62909   0.55177   0.49170   1.000
    N170    N    0.61250   0.47071   0.44569   1.000
    N171    N    0.71518   0.37833   0.35747   1.000
    N172    N    0.02374   0.37662   0.51610   1.000
    N173    N    0.98448   0.39431   0.44121   1.000
    N174    N    0.99692   0.23596   0.45540   1.000
    N175    N    0.07019   0.23486   0.58617   1.000
    O176    O    0.47524   0.89533   0.31670   1.000
    O177    O    0.39486   0.06704   0.27612   1.000
    O178    O    0.49342   0.85836   0.18976   1.000
    O179    O    0.41782   0.02951   0.14689   1.000
    O180    O    0.52902   0.60431   0.81610   1.000
    O181    O    0.60489   0.43012   0.77590   1.000
    O182    O    0.51096   0.64073   0.68928   1.000
    O183    O    0.58169   0.46721   0.64668   1.000
    O184    O    0.97688   0.10451   0.18307   1.000
    O185    O    0.89348   0.93329   0.22375   1.000
    O186    O    0.99562   0.14144   0.31005   1.000
    O187    O    0.91949   0.96997   0.35280   1.000
    O188    O    0.02692   0.39551   0.68360   1.000
    O189    O    0.10678   0.56828   0.72371   1.000
    O190    O    0.00845   0.35898   0.81049   1.000
    O191    O    0.08002   0.53290   0.85294   1.000
    O192    O    0.52478   0.10464   0.68329   1.000
    O193    O    0.60517   0.93294   0.72387   1.000
    O194    O    0.50660   0.14161   0.81020   1.000
    O195    O    0.58221   0.97047   0.85310   1.000
    O196    O    0.47101   0.39566   0.18389   1.000
    O197    O    0.39515   0.56986   0.22400   1.000
    O198    O    0.48906   0.35925   0.31071   1.000
    O199    O    0.41834   0.53277   0.35331   1.000
    O200    O    0.02314   0.89548   0.81692   1.000
    O201    O    0.10655   0.06669   0.77620   1.000
    O202    O    0.00440   0.85854   0.68994   1.000
    O203    O    0.08054   0.03001   0.64713   1.000
    O204    O    0.97310   0.60448   0.31600   1.000
    O205    O    0.89325   0.43170   0.27628   1.000
    O206    O    0.99158   0.64100   0.18950   1.000
    O207    O    0.92000   0.46708   0.14705   1.000
loop_
    _geom_bond_atom_site_label_1
    _geom_bond_atom_site_label_2
    _geom_bond_distance
    _geom_bond_site_symmetry_2
    _ccdc_geom_bond_type
    H52    C103      1.08475  1_554   S
    N153   C97       1.32476      .   S
    N153   N154      1.39118      .   S
    N153   Zn7       2.04100  1_554   S
    N129   C79       1.32456      .   S
    N129   N130      1.39158  1_545   S
    N129   Zn9       2.04154  1_554   S
    H22    C73       1.08473  1_554   S
    N164   C104      1.35318      .   S
    N164   Zn4       2.06394      .   S
    N164   N165      1.39536  1_654   S
    N124   C74       1.35407      .   S
    N124   Zn10      2.06024      .   S
    N124   N125      1.39642  1_554   S
    C97    N152      1.36199      .   S
    C97    H46       1.08444  1_554   S
    C79    N128      1.36136      .   S
    C79    H28       1.08475  1_554   S
    C104   N167      1.35883      .   S
    C104   N166      1.36871  1_654   S
    C74    N127      1.35732      .   S
    C74    N126      1.36939  1_554   S
    N158   Zn1       2.08855      .   S
    N158   C99       1.35592      .   S
    N158   C98       1.36897  1_554   S
    N134   Zn15      2.08909      .   S
    N134   C81       1.35723      .   S
    N134   C80       1.36984  1_654   S
    N154   Zn15      2.01602  1_455   S
    N154   C96       1.34636      .   S
    N130   Zn1       2.01998      .   S
    N130   C78       1.34643      .   S
    N157   C99       1.32607      .   S
    N157   Zn10      2.00650      .   S
    N157   N156      1.39642  1_554   S
    N133   C81       1.32658      .   S
    N133   Zn4       2.01031  1_565   S
    N133   N132      1.39536  1_654   S
    N152   C96       1.37008      .   S
    N152   Zn10      2.04658      .   S
    N128   C78       1.37034  1_545   S
    N128   Zn4       2.03941      .   S
    Zn15   O207      2.27121      .   S
    Zn15   O206      2.10050      .   S
    Zn15   N121      2.04101  1_554   S
    Zn1    O179      2.24018  1_565   S
    Zn1    O178      2.11268      .   S
    Zn1    N161      2.04158  1_554   S
    N167   H57       1.02483      .   S
    N167   H56       1.02437      .   S
    N127   H27       1.02407      .   S
    N127   H26       1.02409      .   S
    C99    H47       1.08257      .   S
    C96    N155      1.36178      .   S
    C81    H29       1.08180      .   S
    C78    N131      1.36109      .   S
    Zn10   O196      2.02696      .   S
    Zn4    O184      2.03675      .   S
    N131   H30       1.02364      .   S
    N131   H31       1.03152      .   S
    N155   H48       1.02262      .   S
    N155   H49       1.03079      .   S
    O179   C65       1.26937      .   S
    O207   C107      1.26826      .   S
    O184   C76       1.26935      .   S
    O196   C94       1.26283      .   S
    O206   C106      1.26708      .   S
    O178   C64       1.26641      .   S
    C107   C106      1.54721      .   S
    C107   O205      1.26249      .   S
    C65    C64       1.54647  1_545   S
    C65    O177      1.26154      .   S
    O185   C77       1.26209      .   S
    O197   C95       1.26296      .   S
    C106   O204      1.26278      .   S
    C64    O176      1.26927      .   S
    C76    C77       1.54694  1_545   S
    C76    O186      1.26678      .   S
    C94    C95       1.54987      .   S
    C94    O198      1.27189      .   S
    C77    O187      1.26813      .   S
    C95    O199      1.26833      .   S
    O186   Zn5       2.11451      .   S
    O198   Zn11      2.09638      .   S
    O204   Zn14      2.03828      .   S
    O176   Zn0       2.03258      .   S
    H61    N171      1.03079      .   S
    H19    N115      1.03062      .   S
    H18    N115      1.02324      .   S
    H60    N171      1.02250      .   S
    H59    C111      1.08186      .   S
    H17    C69       1.08179      .   S
    O187   Zn5       2.24132  1_565   S
    O199   Zn11      2.27262      .   S
    N171   C108      1.36180      .   S
    N115   C66       1.36124      .   S
    H38    N143      1.02429      .   S
    H44    N151      1.02285      .   S
    Zn14   N168      2.03910      .   S
    Zn14   N173      2.01039      .   S
    Zn14   N140      2.06400      .   S
    Zn0    N112      2.04764      .   S
    Zn0    N117      2.00612  1_565   S
    Zn0    N148      2.06110      .   S
    C108   N168      1.36993      .   S
    C108   N170      1.34608      .   S
    C111   N173      1.32669      .   S
    C111   N174      1.35687      .   S
    C69    N117      1.32593      .   S
    C69    N118      1.35696      .   S
    C66    N112      1.37067  1_545   S
    C66    N114      1.34725      .   S
    H45    N151      1.02476      .   S
    H39    N143      1.02415      .   S
    N151   C92       1.35890      .   S
    N143   C86       1.35843      .   S
    Zn5    N114      2.01786  1_655   S
    Zn5    N174      2.08721      .   S
    Zn5    N145      2.04677      .   S
    Zn11   N170      2.01846      .   S
    Zn11   N118      2.09099      .   S
    Zn11   N137      2.03513      .   S
    N168   C109      1.36050      .   S
    N112   C67       1.36179      .   S
    N117   N116      1.39653      .   S
    N173   N172      1.39600  1_655   S
    N170   N169      1.39051      .   S
    N114   N113      1.39168  1_545   S
    N174   C110      1.36855  1_655   S
    N118   C68       1.36912      .   S
    C92    N148      1.35351      .   S
    C92    N150      1.36926      .   S
    C86    N140      1.35369      .   S
    C86    N142      1.36856  1_655   S
    C109   N169      1.32450      .   S
    C109   H58       1.08513      .   S
    C67    N113      1.32498      .   S
    C67    H16       1.08477      .   S
    N140   N141      1.39616  1_655   S
    N148   N149      1.39560      .   S
    N169   Zn3       2.03577      .   S
    H40    C91       1.08477      .   S
    N113   Zn13      2.04677      .   S
    H34    C85       1.08474      .   S
    N145   C91       1.32501      .   S
    N145   N146      1.39166  1_545   S
    N137   C85       1.32451      .   S
    N137   N138      1.39104      .   S
    N116   C68       1.35352      .   S
    N116   Zn8       2.06113      .   S
    N172   C110      1.35371      .   S
    N172   Zn6       2.06416      .   S
    C91    N144      1.36168      .   S
    C85    N136      1.36105      .   S
    C110   N175      1.35840      .   S
    C68    N119      1.35780      .   S
    N150   Zn3       2.09098      .   S
    N150   C93       1.35686      .   S
    N142   Zn13      2.08722      .   S
    N142   C87       1.35688      .   S
    N146   Zn13      2.01788  1_655   S
    N146   C90       1.34668      .   S
    N138   Zn3       2.01849      .   S
    N138   C84       1.34610      .   S
    N141   C87       1.32669      .   S
    N141   Zn6       2.01043      .   S
    N149   C93       1.32637      .   S
    N149   Zn8       2.00643  1_565   S
    N144   C90       1.37037  1_545   S
    N144   Zn8       2.04764      .   S
    N136   C84       1.36995      .   S
    N136   Zn6       2.03908      .   S
    Zn3    O183      2.27264      .   S
    Zn3    O182      2.09637      .   S
    Zn13   O203      2.24079  1_565   S
    Zn13   O202      2.11450      .   S
    N175   H63       1.02415      .   S
    N175   H62       1.02429      .   S
    N119   H21       1.02489      .   S
    N119   H20       1.02417      .   S
    C90    N147      1.36209      .   S
    C93    H41       1.08178      .   S
    C87    H35       1.08186      .   S
    C84    N139      1.36179      .   S
    Zn8    O192      2.03257      .   S
    Zn6    O188      2.03327      .   S
    N147   H42       1.02319      .   S
    N147   H43       1.03050      .   S
    N139   H36       1.02216      .   S
    N139   H37       1.03080      .   S
    O183   C71       1.26832      .   S
    O203   C101      1.26913      .   S
    O192   C88       1.26926      .   S
    O188   C82       1.26921      .   S
    O182   C70       1.26706      .   S
    O202   C100      1.26678      .   S
    C71    C70       1.54814      .   S
    C71    O181      1.26181      .   S
    C101   C100      1.54695  1_545   S
    C101   O201      1.26157      .   S
    O189   C83       1.26251      .   S
    O193   C89       1.26156      .   S
    C70    O180      1.26925      .   S
    C100   O200      1.26936      .   S
    C88    C89       1.54646  1_545   S
    C88    O194      1.26604      .   S
    C82    C83       1.54721      .   S
    C82    O190      1.26709      .   S
    C89    O195      1.26936      .   S
    C83    O191      1.26825      .   S
    O194   Zn9       2.11315      .   S
    O190   Zn7       2.10050      .   S
    O180   Zn2       2.02695      .   S
    O200   Zn12      2.03675      .   S
    H55    N163      1.03039      .   S
    H25    N123      1.03079      .   S
    H24    N123      1.02261      .   S
    H54    N163      1.02298      .   S
    H53    C105      1.08180      .   S
    H23    C75       1.08178      .   S
    O191   Zn7       2.27121      .   S
    O195   Zn9       2.24017  1_565   S
    N123   C72       1.36170      .   S
    N163   C102      1.36218      .   S
    H50    N159      1.02409      .   S
    H32    N135      1.02437      .   S
    Zn12   N160      2.03940      .   S
    Zn12   N165      2.01034  1_565   S
    Zn12   N132      2.06397      .   S
    Zn2    N120      2.04657      .   S
    Zn2    N125      2.00650      .   S
    Zn2    N156      2.06026      .   S
    C102   N160      1.37034  1_545   S
    C102   N162      1.34645      .   S
    C105   N165      1.32658      .   S
    C105   N166      1.35723      .   S
    C72    N120      1.37007      .   S
    C72    N122      1.34637      .   S
    C75    N125      1.32643      .   S
    C75    N126      1.35613      .   S
    H51    N159      1.02407      .   S
    H33    N135      1.02483      .   S
    N159   C98       1.35731      .   S
    N135   C80       1.35775      .   S
    Zn9    N162      2.02001      .   S
    Zn9    N126      2.08845      .   S
    Zn7    N122      2.01603  1_455   S
    Zn7    N166      2.08909      .   S
    N160   C103      1.36138      .   S
    N120   C73       1.36156      .   S
    N162   N161      1.39147  1_545   S
    N122   N121      1.39119      .   S
    C98    N156      1.35407      .   S
    C80    N132      1.35328      .   S
    C103   N161      1.32454      .   S
    C73    N121      1.32487      .   S
