# CIF file generated by openbabel 2.4.90, see http://openbabel.sf.net
data_I
_chemical_name_common ''
_cell_length_a 14.575
_cell_length_b 14.7
_cell_length_c 26.013
_cell_angle_alpha 90.15
_cell_angle_beta 90.408
_cell_angle_gamma 90.188
_space_group_name_H-M_alt 'P 1'
_space_group_name_Hall 'P 1'
loop_
    _symmetry_equiv_pos_as_xyz
    x,y,z
loop_
    _atom_site_label
    _atom_site_type_symbol
    _atom_site_fract_x
    _atom_site_fract_y
    _atom_site_fract_z
    _atom_site_occupancy
    H0      H    0.76662   0.42609   0.31120   1.000
    H1      H    0.89519   0.32646   0.28154   1.000
    H2      H    0.04393   0.32961   0.33220   1.000
    H3      H    0.05354   0.42271   0.41216   1.000
    H4      H    0.91459   0.51310   0.43919   1.000
    H5      H    0.73919   0.57113   0.81152   1.000
    H6      H    0.61398   0.67454   0.78025   1.000
    H7      H    0.46416   0.67483   0.82820   1.000
    H8      H    0.44885   0.58010   0.90692   1.000
    H9      H    0.58475   0.48632   0.93608   1.000
    H10     H    0.23004   0.92590   0.18863   1.000
    H11     H    0.10212   0.82461   0.21790   1.000
    H12     H    0.95338   0.82597   0.16715   1.000
    H13     H    0.94324   0.91929   0.08761   1.000
    H14     H    0.08173   0.01111   0.06086   1.000
    H15     H    0.26598   0.07015   0.68937   1.000
    H16     H    0.39379   0.17195   0.71978   1.000
    H17     H    0.54223   0.17101   0.67009   1.000
    H18     H    0.55257   0.07746   0.59046   1.000
    H19     H    0.41431   0.98495   0.56254   1.000
    H20     H    0.23372   0.57478   0.68800   1.000
    H21     H    0.10565   0.67440   0.71870   1.000
    H22     H    0.95590   0.67086   0.66907   1.000
    H23     H    0.94450   0.57728   0.58940   1.000
    H24     H    0.08304   0.48687   0.56153   1.000
    H25     H    0.25911   0.42452   0.18836   1.000
    H26     H    0.38404   0.32129   0.22029   1.000
    H27     H    0.53468   0.32145   0.17324   1.000
    H28     H    0.55142   0.41662   0.09480   1.000
    H29     H    0.41596   0.51042   0.06498   1.000
    H30     H    0.76580   0.07175   0.81205   1.000
    H31     H    0.89214   0.17439   0.78187   1.000
    H32     H    0.04245   0.17310   0.83080   1.000
    H33     H    0.05652   0.07789   0.90949   1.000
    H34     H    0.91949   0.98488   0.93748   1.000
    H35     H    0.73873   0.92721   0.31144   1.000
    H36     H    0.61250   0.82445   0.27966   1.000
    H37     H    0.46191   0.82596   0.32690   1.000
    H38     H    0.44688   0.92149   0.40551   1.000
    H39     H    0.58373   0.01472   0.43522   1.000
    C40     C    0.83102   0.42223   0.33260   1.000
    C41     C    0.90318   0.36816   0.31610   1.000
    C42     C    0.98472   0.36884   0.34462   1.000
    C43     C    0.99052   0.42107   0.38944   1.000
    C44     C    0.91516   0.47211   0.40423   1.000
    N45     N    0.83674   0.47373   0.37587   1.000
    C46     C    0.67424   0.57646   0.83179   1.000
    C47     C    0.60409   0.63258   0.81436   1.000
    C48     C    0.52168   0.63362   0.84139   1.000
    C49     C    0.51290   0.58084   0.88563   1.000
    C50     C    0.58645   0.52779   0.90144   1.000
    C51     C    0.16572   0.92120   0.16716   1.000
    C52     C    0.09387   0.86619   0.18346   1.000
    C53     C    0.01237   0.86593   0.15491   1.000
    C54     C    0.00632   0.91816   0.11027   1.000
    C55     C    0.08141   0.97007   0.09560   1.000
    C56     C    0.33027   0.07492   0.66840   1.000
    C57     C    0.40199   0.13018   0.68534   1.000
    C58     C    0.48341   0.13067   0.65737   1.000
    C59     C    0.48955   0.07830   0.61269   1.000
    C60     C    0.41460   0.00000   0.59745   1.000
    C61     C    0.16881   0.57850   0.66736   1.000
    C62     C    0.09699   0.63256   0.68429   1.000
    C63     C    0.01485   0.63162   0.65630   1.000
    C64     C    0.00806   0.57916   0.61163   1.000
    C65     C    0.08310   0.52811   0.59641   1.000
    C66     C    0.32453   0.41953   0.16854   1.000
    C67     C    0.39445   0.36346   0.18632   1.000
    C68     C    0.47738   0.36269   0.15978   1.000
    C69     C    0.48695   0.41572   0.11500   1.000
    C70     C    0.41364   0.46876   0.09954   1.000
    C71     C    0.83091   0.07640   0.83276   1.000
    C72     C    0.90177   0.13217   0.81595   1.000
    C73     C    0.98431   0.13236   0.84354   1.000
    C74     C    0.99245   0.07922   0.88774   1.000
    C75     C    0.91825   0.00000   0.90291   1.000
    C76     C    0.67339   0.92271   0.33139   1.000
    C77     C    0.60267   0.86694   0.31367   1.000
    C78     C    0.51984   0.86688   0.34031   1.000
    C79     C    0.51121   0.92024   0.38447   1.000
    C80     C    0.58527   0.97291   0.40050   1.000
    N81     N    0.66576   0.52467   0.87456   1.000
    N82     N    0.15974   0.97262   0.12409   1.000
    N83     N    0.33629   0.00000   0.62526   1.000
    N84     N    0.16208   0.52677   0.62426   1.000
    N85     N    0.33378   0.47157   0.12590   1.000
    N86     N    0.83885   0.00000   0.87544   1.000
    N87     N    0.66504   0.97512   0.37400   1.000
loop_
    _geom_bond_atom_site_label_1
    _geom_bond_atom_site_label_2
    _geom_bond_distance
    _geom_bond_site_symmetry_2
    _ccdc_geom_bond_type
    H14    C55       1.08786  1_545   S
    H29    C70       1.08978      .   S
    H13    C54       1.08876  1_655   S
    H28    C69       1.07989      .   S
    C55    C54       1.38848      .   S
    C55    N82       1.35712      .   S
    C70    C69       1.38289      .   S
    C70    N85       1.35576      .   S
    C54    C53       1.39622      .   S
    C69    C68       1.41087      .   S
    N82    C51       1.35563      .   S
    N85    C66       1.35633      .   S
    C53    H12       1.08964  1_455   S
    C53    C52       1.39639      .   S
    C68    H27       1.08990      .   S
    C68    C67       1.39630      .   S
    C51    C52       1.39024      .   S
    C51    H10       1.08972      .   S
    C66    C67       1.39016      .   S
    C66    H25       1.08976      .   S
    C52    H11       1.09208      .   S
    C67    H26       1.09193      .   S
    H36    C77       1.09217      .   S
    H1     C41       1.09213      .   S
    H0     C40       1.08960      .   S
    H35    C76       1.08975      .   S
    C77    C76       1.39018      .   S
    C77    C78       1.39629      .   S
    C41    C40       1.39004      .   S
    C41    C42       1.39654      .   S
    H37    C78       1.08988      .   S
    C76    N87       1.35456      .   S
    H2     C42       1.08993  1_455   S
    C40    N45       1.35673      .   S
    C78    C79       1.39596      .   S
    C42    C43       1.39622      .   S
    N87    C80       1.35615      .   S
    N45    C44       1.35634      .   S
    C79    C80       1.38757      .   S
    C79    H38       1.08911      .   S
    C43    C44       1.38822      .   S
    C43    H3        1.08888  1_655   S
    C80    H39       1.09152  1_565   S
    C44    H4        1.08970      .   S
    H24    C65       1.08989      .   S
    H19    C60       0.93408  1_565   S
    H23    C64       1.08880  1_655   S
    H18    C59       1.08900      .   S
    C65    C64       1.38788      .   S
    C65    N84       1.35603      .   S
    C60    C59       1.63046      .   S
    C60    N83       1.35569      .   S
    C64    C63       1.39561      .   S
    C59    C58       1.39599      .   S
    N84    C61       1.35584      .   S
    N83    C56       1.57336      .   S
    C63    H22       1.08976  1_455   S
    C63    C62       1.39680      .   S
    C58    H17       1.08980      .   S
    C58    C57       1.39637      .   S
    C61    C62       1.38990      .   S
    C61    H20       1.08604      .   S
    C56    C57       1.39025      .   S
    C56    H15       1.08974      .   S
    C62    H21       1.09105      .   S
    C57    H16       1.09229      .   S
    H6     C47       1.09210      .   S
    H31    C72       1.09205      .   S
    H5     C46       1.08973      .   S
    H30    C71       1.08971      .   S
    C47    C46       1.39017      .   S
    C47    C48       1.39624      .   S
    C72    C71       1.39021      .   S
    C72    C73       1.39632      .   S
    H7     C48       1.08988      .   S
    H32    C73       1.09014  1_455   S
    C46    N81       1.35588      .   S
    C71    N86       1.58524      .   S
    C48    C49       1.39601      .   S
    C73    C74       1.39630      .   S
    N81    C50       1.35608      .   S
    N86    C75       1.35571      .   S
    C49    C50       1.38825      .   S
    C49    H8        1.08886      .   S
    C74    C75       1.63763      .   S
    C74    H33       1.08868  1_655   S
    C50    H9        1.08960      .   S
    C75    H34       0.92696  1_545   S
