# CIF file generated by openbabel 2.4.90, see http://openbabel.sf.net
data_I
_chemical_name_common ''
_cell_length_a 14.575
_cell_length_b 14.7
_cell_length_c 26.013
_cell_angle_alpha 90.15
_cell_angle_beta 90.408
_cell_angle_gamma 90.188
_space_group_name_H-M_alt 'P 1'
_space_group_name_Hall 'P 1'
loop_
    _symmetry_equiv_pos_as_xyz
    x,y,z
loop_
    _atom_site_label
    _atom_site_type_symbol
    _atom_site_fract_x
    _atom_site_fract_y
    _atom_site_fract_z
    _atom_site_occupancy
    H0      H    0.73650   0.94892   0.53591   1.000
    H1      H    0.75001   0.82872   0.46815   1.000
    H2      H    0.71555   0.75395   0.65079   1.000
    H3      H    0.28127   0.62015   0.24295   1.000
    H4      H    0.42339   0.65593   0.19414   1.000
    H5      H    0.43279   0.52833   0.36852   1.000
    H6      H    0.75872   0.04933   0.03641   1.000
    H7      H    0.74547   0.16779   0.96798   1.000
    H8      H    0.78109   0.24697   0.15047   1.000
    H9      H    0.21722   0.37950   0.74364   1.000
    H10     H    0.07414   0.34555   0.69403   1.000
    H11     H    0.06802   0.46512   0.87054   1.000
    H12     H    0.26276   0.44600   0.96420   1.000
    H13     H    0.24879   0.32718   0.03242   1.000
    H14     H    0.28555   0.24874   0.85020   1.000
    H15     H    0.71678   0.11919   0.25641   1.000
    H16     H    0.57457   0.15380   0.30548   1.000
    H17     H    0.56500   0.02756   0.13038   1.000
    H18     H    0.23573   0.54988   0.46274   1.000
    H19     H    0.24842   0.66856   0.53150   1.000
    H20     H    0.21662   0.74731   0.34902   1.000
    H21     H    0.78250   0.87872   0.75627   1.000
    H22     H    0.92524   0.84124   0.80503   1.000
    H23     H    0.93242   0.97006   0.63096   1.000
    H24     H    0.26138   0.05128   0.46385   1.000
    H25     H    0.24646   0.17137   0.53153   1.000
    H26     H    0.28382   0.24630   0.34909   1.000
    H27     H    0.71707   0.37781   0.75649   1.000
    H28     H    0.57519   0.33996   0.80509   1.000
    H29     H    0.56474   0.47263   0.63195   1.000
    H30     H    0.24200   0.94640   0.96330   1.000
    H31     H    0.25523   0.82812   0.03189   1.000
    H32     H    0.21874   0.74855   0.84948   1.000
    H33     H    0.78219   0.61917   0.25593   1.000
    H34     H    0.92563   0.65571   0.30477   1.000
    H35     H    0.93073   0.52937   0.12900   1.000
    H36     H    0.73680   0.54972   0.03597   1.000
    H37     H    0.75191   0.66907   0.96815   1.000
    H38     H    0.71358   0.74607   0.15044   1.000
    H39     H    0.28301   0.87814   0.74330   1.000
    H40     H    0.42505   0.84340   0.69414   1.000
    H41     H    0.43512   0.96763   0.86970   1.000
    H42     H    0.75977   0.44956   0.53684   1.000
    H43     H    0.74700   0.32976   0.46867   1.000
    H44     H    0.78106   0.25395   0.65145   1.000
    H45     H    0.21750   0.11844   0.24329   1.000
    H46     H    0.07468   0.15482   0.19429   1.000
    H47     H    0.06774   0.03037   0.36939   1.000
    C48     C    0.24040   0.87428   0.95300   1.000
    C49     C    0.24815   0.80825   0.99171   1.000
    C50     C    0.24772   0.71609   0.97820   1.000
    C51     C    0.23732   0.69295   0.92605   1.000
    C52     C    0.73541   0.87702   0.54577   1.000
    C53     C    0.74329   0.80993   0.50839   1.000
    C54     C    0.74368   0.71813   0.52243   1.000
    C55     C    0.73353   0.69644   0.57465   1.000
    C56     C    0.72553   0.76741   0.60998   1.000
    C57     C    0.75756   0.64558   0.48232   1.000
    C58     C    0.72422   0.60094   0.59484   1.000
    C59     C    0.34893   0.60825   0.25968   1.000
    C60     C    0.42839   0.62795   0.23280   1.000
    C61     C    0.51440   0.61136   0.25518   1.000
    C62     C    0.51637   0.57626   0.30547   1.000
    C63     C    0.43357   0.55719   0.32995   1.000
    C64     C    0.59972   0.62817   0.22374   1.000
    C65     C    0.60343   0.56262   0.33488   1.000
    C66     C    0.76012   0.12144   0.04590   1.000
    C67     C    0.75237   0.18757   0.00818   1.000
    C68     C    0.75255   0.27973   0.02174   1.000
    C69     C    0.76270   0.30275   0.07393   1.000
    C70     C    0.77077   0.23256   0.10960   1.000
    N71     N    0.72683   0.85582   0.59612   1.000
    N72     N    0.35121   0.57246   0.30766   1.000
    N73     N    0.76917   0.14382   0.09624   1.000
    N74     N    0.14845   0.42388   0.80909   1.000
    C75     C    0.74017   0.35109   0.98094   1.000
    C76     C    0.77193   0.39873   0.09386   1.000
    C77     C    0.14987   0.39029   0.76050   1.000
    C78     C    0.06991   0.37166   0.73318   1.000
    C79     C    0.98432   0.38688   0.75575   1.000
    C80     C    0.98326   0.41955   0.80665   1.000
    C81     C    0.06652   0.43774   0.83156   1.000
    C82     C    0.89843   0.37080   0.72402   1.000
    C83     C    0.89664   0.43205   0.83598   1.000
    C84     C    0.26414   0.37390   0.95466   1.000
    C85     C    0.25600   0.30765   0.99227   1.000
    C86     C    0.25606   0.21554   0.97860   1.000
    C87     C    0.26683   0.19253   0.92653   1.000
    C88     C    0.27514   0.26286   0.89094   1.000
    C89     C    0.24267   0.14449   0.01932   1.000
    C90     C    0.27635   0.09668   0.90653   1.000
    C91     C    0.64903   0.10706   0.23970   1.000
    C92     C    0.56964   0.12603   0.26668   1.000
    C93     C    0.48366   0.10905   0.24419   1.000
    C94     C    0.48139   0.07444   0.19369   1.000
    C95     C    0.56416   0.05611   0.16910   1.000
    C96     C    0.39881   0.12534   0.27592   1.000
    C97     C    0.39407   0.06091   0.16430   1.000
    C98     C    0.23489   0.62196   0.45337   1.000
    C99     C    0.24229   0.68817   0.49131   1.000
    C100    C    0.24285   0.78028   0.47796   1.000
    C101    C    0.23348   0.80330   0.42581   1.000
    C102    C    0.22602   0.73306   0.38985   1.000
    C103    C    0.25562   0.85152   0.51898   1.000
    C104    C    0.22455   0.89932   0.40618   1.000
    C105    C    0.84994   0.89015   0.73961   1.000
    C106    C    0.92972   0.86947   0.76644   1.000
    C107    C    0.00000   0.88546   0.74414   1.000
    C108    C    0.00000   0.92073   0.69387   1.000
    C109    C    0.93371   0.94087   0.66946   1.000
    C110    C    0.10102   0.86798   0.77584   1.000
    C111    C    0.10347   0.93360   0.66454   1.000
    C112    C    0.26256   0.12319   0.45399   1.000
    C113    C    0.25382   0.19025   0.49133   1.000
    C114    C    0.25340   0.28205   0.47731   1.000
    C115    C    0.26423   0.30377   0.42513   1.000
    C116    C    0.27323   0.23286   0.38985   1.000
    C117    C    0.23893   0.35459   0.51738   1.000
    C118    C    0.27326   0.39933   0.40502   1.000
    C119    C    0.64928   0.38996   0.73997   1.000
    C120    C    0.56999   0.36912   0.76671   1.000
    C121    C    0.48383   0.38609   0.74459   1.000
    C122    C    0.48141   0.42265   0.69460   1.000
    C123    C    0.56410   0.44276   0.67027   1.000
    C124    C    0.39897   0.36813   0.77619   1.000
    C125    C    0.39417   0.43670   0.66535   1.000
    C126    C    0.22924   0.76301   0.89026   1.000
    C127    C    0.25996   0.64474   0.01899   1.000
    C128    C    0.22802   0.59691   0.90631   1.000
    C129    C    0.84950   0.60802   0.23909   1.000
    C130    C    0.92958   0.62811   0.26593   1.000
    C131    C    0.00000   0.61227   0.24331   1.000
    C132    C    0.00000   0.57766   0.19281   1.000
    C133    C    0.93258   0.55815   0.16836   1.000
    C134    C    0.10072   0.62880   0.27502   1.000
    C135    C    0.10254   0.56464   0.16346   1.000
    C136    C    0.73553   0.62174   0.04573   1.000
    C137    C    0.74430   0.68832   0.00833   1.000
    C138    C    0.74454   0.78031   0.02225   1.000
    C139    C    0.73324   0.80279   0.07435   1.000
    C140    C    0.72430   0.73221   0.10970   1.000
    C141    C    0.75928   0.85203   0.98200   1.000
    C142    C    0.72413   0.89851   0.09453   1.000
    C143    C    0.35080   0.88967   0.76010   1.000
    C144    C    0.43011   0.87061   0.73306   1.000
    C145    C    0.51616   0.88683   0.75564   1.000
    C146    C    0.51852   0.92083   0.80627   1.000
    C147    C    0.43586   0.93939   0.83090   1.000
    C148    C    0.60112   0.87066   0.72398   1.000
    C149    C    0.60587   0.93377   0.83569   1.000
    C150    C    0.76101   0.37760   0.54653   1.000
    C151    C    0.75357   0.31076   0.50894   1.000
    C152    C    0.75354   0.21888   0.52278   1.000
    C153    C    0.76353   0.19679   0.57501   1.000
    C154    C    0.77106   0.26756   0.61059   1.000
    C155    C    0.74031   0.14682   0.48223   1.000
    C156    C    0.77296   0.10114   0.59494   1.000
    C157    C    0.15007   0.10761   0.26009   1.000
    C158    C    0.07027   0.12766   0.23310   1.000
    C159    C    0.98460   0.11231   0.25563   1.000
    C160    C    0.98329   0.07834   0.30617   1.000
    C161    C    0.06639   0.05873   0.33070   1.000
    C162    C    0.89893   0.12912   0.22398   1.000
    C163    C    0.89674   0.06601   0.33563   1.000
    N164    N    0.27336   0.35153   0.90447   1.000
    N165    N    0.64649   0.07156   0.19150   1.000
    N166    N    0.22705   0.64434   0.40300   1.000
    N167    N    0.85167   0.92638   0.69170   1.000
    N168    N    0.27209   0.14446   0.40371   1.000
    N169    N    0.64659   0.42722   0.69236   1.000
    N170    N    0.23108   0.85175   0.90364   1.000
    N171    N    0.85082   0.57251   0.19096   1.000
    N172    N    0.72590   0.64364   0.09597   1.000
    N173    N    0.35346   0.92462   0.80837   1.000
    N174    N    0.76949   0.35602   0.59688   1.000
    N175    N    0.14839   0.07259   0.30824   1.000
    O176    O    0.72672   0.66563   0.43674   1.000
    O177    O    0.79733   0.57303   0.49334   1.000
    O178    O    0.78849   0.57703   0.62695   1.000
    O179    O    0.65646   0.55442   0.58224   1.000
    O180    O    0.63061   0.55370   0.20390   1.000
    O181    O    0.62862   0.70694   0.21771   1.000
    O182    O    0.67721   0.60143   0.32016   1.000
    O183    O    0.60215   0.51535   0.37620   1.000
    O184    O    0.76942   0.32838   0.93561   1.000
    O185    O    0.70339   0.42565   0.99105   1.000
    O186    O    0.70716   0.42328   0.12500   1.000
    O187    O    0.83988   0.44501   0.08204   1.000
    O188    O    0.86723   0.44538   0.70445   1.000
    O189    O    0.86943   0.29204   0.71771   1.000
    O190    O    0.82237   0.39480   0.82010   1.000
    O191    O    0.89861   0.47730   0.87818   1.000
    O192    O    0.26932   0.16803   0.06522   1.000
    O193    O    0.20716   0.06907   0.00000   1.000
    O194    O    0.21097   0.07122   0.87536   1.000
    O195    O    0.34511   0.05152   0.91820   1.000
    O196    O    0.36768   0.05085   0.29562   1.000
    O197    O    0.37059   0.20409   0.28240   1.000
    O198    O    0.32030   0.09808   0.18009   1.000
    O199    O    0.39481   0.01560   0.12218   1.000
    O200    O    0.22691   0.82858   0.56434   1.000
    O201    O    0.29260   0.92622   0.50900   1.000
    O202    O    0.28978   0.92423   0.37533   1.000
    O203    O    0.15640   0.94503   0.41785   1.000
    O204    O    0.13316   0.94231   0.79573   1.000
    O205    O    0.12881   0.78904   0.78218   1.000
    O206    O    0.17707   0.89495   0.67981   1.000
    O207    O    0.10204   0.98009   0.62291   1.000
    O208    O    0.27023   0.33483   0.56291   1.000
    O209    O    0.19846   0.42673   0.50630   1.000
    O210    O    0.20928   0.42300   0.37268   1.000
    O211    O    0.34055   0.44622   0.41794   1.000
    O212    O    0.36750   0.44217   0.79622   1.000
    O213    O    0.37116   0.28900   0.78226   1.000
    O214    O    0.32040   0.39776   0.67990   1.000
    O215    O    0.39522   0.48443   0.62417   1.000
    O216    O    0.23045   0.66745   0.06426   1.000
    O217    O    0.29681   0.57020   0.00000   1.000
    O218    O    0.29304   0.57194   0.87541   1.000
    O219    O    0.15984   0.55085   0.91798   1.000
    O220    O    0.13262   0.55394   0.29390   1.000
    O221    O    0.12891   0.70760   0.28217   1.000
    O222    O    0.17596   0.60486   0.17820   1.000
    O223    O    0.10149   0.51619   0.12241   1.000
    O224    O    0.73113   0.82999   0.93607   1.000
    O225    O    0.79710   0.92596   0.99312   1.000
    O226    O    0.78852   0.92280   0.12663   1.000
    O227    O    0.65658   0.94485   0.08201   1.000
    O228    O    0.63229   0.94534   0.70451   1.000
    O229    O    0.62938   0.79195   0.71748   1.000
    O230    O    0.67923   0.89520   0.82034   1.000
    O231    O    0.60543   0.98026   0.87744   1.000
    O232    O    0.77284   0.16787   0.43736   1.000
    O233    O    0.69964   0.07415   0.49209   1.000
    O234    O    0.70939   0.07703   0.62700   1.000
    O235    O    0.83992   0.05457   0.58215   1.000
    O236    O    0.86692   0.05451   0.20434   1.000
    O237    O    0.87089   0.20793   0.21760   1.000
    O238    O    0.82317   0.10498   0.32046   1.000
    O239    O    0.89812   0.01953   0.37724   1.000
loop_
    _geom_bond_atom_site_label_1
    _geom_bond_atom_site_label_2
    _geom_bond_distance
    _geom_bond_site_symmetry_2
    _ccdc_geom_bond_type
    O193   C89       1.31865      .   S
    O217   C127      1.31830      .   S
    C67    C68       1.39896      .   S
    C67    C66       1.38737      .   S
    C67    H7        1.08854  1_554   S
    C137   C138      1.39892      .   S
    C137   C136      1.38809      .   S
    C137   H37       1.08863  1_554   S
    C127   O216      1.29972      .   S
    C127   C50       1.50398  1_554   S
    C89    O192      1.29872      .   S
    C89    C86       1.50282  1_554   S
    C68    C69       1.40497      .   S
    C68    C75       1.50457  1_554   S
    C138   C139      1.40510      .   S
    C138   C141      1.50385  1_554   S
    H31    C49       1.08861  1_554   S
    H13    C85       1.08833  1_554   S
    H36    C136      1.08827      .   S
    H6     C66       1.08776      .   S
    C136   N172      1.35350      .   S
    C66    N73       1.35479      .   S
    C69    C76       1.50722      .   S
    C69    C70       1.39407      .   S
    C139   C142      1.50703      .   S
    C139   C140      1.39465      .   S
    O227   C142      1.24115      .   S
    O187   C76       1.24058      .   S
    C76    O186      1.29966      .   S
    C142   O226      1.30021      .   S
    N172   C140      1.34950      .   S
    N73    C70       1.34920      .   S
    C70    H8        1.09274      .   S
    C140   H38       1.09111      .   S
    O199   C97       1.28086      .   S
    O223   C135      1.28197      .   S
    H35    C133      1.10694      .   S
    H17    C95       1.09032      .   S
    C135   O222      1.27683      .   S
    C135   C132      1.69430      .   S
    C97    O198      1.27758      .   S
    C97    C94       1.49254      .   S
    C133   N171      1.34959      .   S
    C133   C132      1.20022  1_655   S
    C95    N165      1.34861      .   S
    C95    C94       1.39611      .   S
    N171   C129      1.35549      .   S
    N165   C91       1.35701      .   S
    C132   C131      1.40745      .   S
    C94    C93       1.40767      .   S
    H4     C60       1.08957      .   S
    H46    C158      1.08889      .   S
    O180   C64       1.29273      .   S
    O236   C162      1.29298      .   S
    O237   C162      1.24088      .   S
    O181   C64       1.24147      .   S
    C64    C61       1.51319      .   S
    C162   C159      1.51212      .   S
    C60    C61       1.40083      .   S
    C60    C59       1.38727      .   S
    C158   C159      1.40104  1_455   S
    C158   C157      1.38720      .   S
    C129   H33       1.09006      .   S
    C129   C130      1.38631      .   S
    C91    H15       1.09005      .   S
    C91    C92       1.38634      .   S
    H3     C59       1.08987      .   S
    H45    C157      1.08974      .   S
    C131   C130      1.20973  1_455   S
    C131   C134      1.69522      .   S
    C93    C92       1.40063      .   S
    C93    C96       1.51109      .   S
    C61    C62       1.40766      .   S
    C159   C160      1.40777      .   S
    C59    N72       1.35598      .   S
    C157   N175      1.35577      .   S
    C130   H34       1.08971      .   S
    C92    H16       1.08955      .   S
    C134   O221      1.24085      .   S
    C134   O220      1.29292      .   S
    C96    O197      1.24122      .   S
    C96    O196      1.29255      .   S
    C62    C63       1.39656      .   S
    C62    C65       1.49135      .   S
    C160   C161      1.39620  1_655   S
    C160   C163      1.49155      .   S
    N72    C63       1.34903      .   S
    N175   C161      1.34909      .   S
    O182   C65       1.27735      .   S
    O238   C163      1.27781      .   S
    C63    H5        1.09048      .   S
    C161   H47       1.09048      .   S
    C65    O183      1.28158      .   S
    C163   O239      1.28164      .   S
    H20    C102      1.09088      .   S
    H26    C116      1.09102      .   S
    O210   C118      1.30034      .   S
    O202   C104      1.30077      .   S
    C102   N166      1.34923      .   S
    C102   C101      1.39492      .   S
    C116   N168      1.34953      .   S
    C116   C115      1.39414      .   S
    N166   C98       1.35590      .   S
    N168   C112      1.35356      .   S
    C118   O211      1.24067      .   S
    C118   C115      1.50602      .   S
    C104   O203      1.24014      .   S
    C104   C101      1.50794      .   S
    C115   C114      1.40509      .   S
    C101   C100      1.40481      .   S
    O176   C57       1.29992      .   S
    O232   C155      1.30065      .   S
    C98    H18       1.08804      .   S
    C98    C99       1.38767      .   S
    C112   H24       1.08851      .   S
    C112   C113      1.38881      .   S
    H1     C53       1.08829      .   S
    H43    C151      1.08850      .   S
    C114   C113      1.39886      .   S
    C114   C117      1.50564      .   S
    C100   C99       1.39882      .   S
    C100   C103      1.50332      .   S
    C155   O233      1.24808      .   S
    C155   C152      1.50390      .   S
    C57    O177      1.24848      .   S
    C57    C54       1.50518      .   S
    C99    H19       1.08836      .   S
    C113   H25       1.08856      .   S
    O209   C117      1.24847      .   S
    C53    C54       1.39895      .   S
    C53    C52       1.38879      .   S
    C151   C152      1.39875      .   S
    C151   C150      1.38783      .   S
    O201   C103      1.25028      .   S
    C117   O208      1.30009      .   S
    C103   O200      1.29975      .   S
    C54    C55       1.40483      .   S
    C152   C153      1.40440      .   S
    H0     C52       1.08834      .   S
    H42    C150      1.08821      .   S
    C52    N71       1.35369      .   S
    C150   N174      1.35332      .   S
    C55    C58       1.50620      .   S
    C55    C56       1.39419      .   S
    C153   C156      1.50635      .   S
    C153   C154      1.39410      .   S
    O235   C156      1.24075      .   S
    O179   C58       1.24104      .   S
    C58    O178      1.30043      .   S
    C156   O234      1.30001      .   S
    N71    C56       1.34971      .   S
    N174   C154      1.34953      .   S
    C56    H2        1.09105      .   S
    C154   H44       1.09092      .   S
    O207   C111      1.28215      .   S
    O215   C125      1.28226      .   S
    H23    C109      1.09064      .   S
    H29    C123      1.09039      .   S
    C111   O206      1.27697      .   S
    C111   C108      1.70508      .   S
    C125   O214      1.27666      .   S
    C125   C122      1.49237      .   S
    C109   N167      1.34862      .   S
    C109   C108      1.19105  1_655   S
    C123   N169      1.34928      .   S
    C123   C122      1.39634      .   S
    N167   C105      1.35697      .   S
    N169   C119      1.35588      .   S
    C108   C107      1.40796      .   S
    H10    C78       1.08964      .   S
    H40    C144      1.08952      .   S
    C122   C121      1.40864      .   S
    O188   C82       1.29259      .   S
    O228   C148      1.29271      .   S
    O229   C148      1.24106      .   S
    O189   C82       1.24132      .   S
    C148   C145      1.51112      .   S
    C82    C79       1.51214      .   S
    C144   C145      1.40052      .   S
    C144   C143      1.38644      .   S
    C78    C79       1.40086  1_455   S
    C78    C77       1.38686      .   S
    C105   H21       1.08978      .   S
    C105   C106      1.38687      .   S
    C119   H27       1.09007      .   S
    C119   C120      1.38689      .   S
    H39    C143      1.09009      .   S
    H9     C77       1.08991      .   S
    C107   C106      1.20356  1_455   S
    C107   C110      1.70297      .   S
    C121   C120      1.40101      .   S
    C121   C124      1.51279      .   S
    C145   C146      1.40762      .   S
    C79    C80       1.40748      .   S
    C143   N173      1.35567      .   S
    C77    N74       1.35612      .   S
    C106   H22       1.08953      .   S
    C120   H28       1.08979      .   S
    C110   O205      1.24124      .   S
    C110   O204      1.29279      .   S
    C124   O213      1.24141      .   S
    C124   O212      1.29243      .   S
    C146   C147      1.39604      .   S
    C146   C149      1.49215      .   S
    C80    C81       1.39634  1_655   S
    C80    C83       1.49147      .   S
    N173   C147      1.34925      .   S
    N74    C81       1.34912      .   S
    O190   C83       1.27699      .   S
    O230   C149      1.27782      .   S
    C147   H41       1.09046      .   S
    C81    H11       1.09004      .   S
    C149   O231      1.28168      .   S
    C83    O191      1.28215      .   S
    H32    C126      1.09099      .   S
    H14    C88       1.09113      .   S
    O194   C90       1.30022      .   S
    O218   C128      1.30030      .   S
    C126   N170      1.34942      .   S
    C126   C51       1.39486      .   S
    C88    N164      1.34953      .   S
    C88    C87       1.39521      .   S
    N170   C48       1.33107      .   S
    N164   C84       1.35326      .   S
    C128   O219      1.24055      .   S
    C128   C51       1.50635      .   S
    C90    O195      1.24018      .   S
    C90    C87       1.50788      .   S
    C51    C50       1.40476      .   S
    C87    C86       1.40522      .   S
    O184   C75       1.29988      .   S
    O224   C141      1.30036      .   S
    C48    H30       1.09294      .   S
    C48    C49       1.40464      .   S
    C84    H12       1.08827      .   S
    C84    C85       1.38761      .   S
    C50    C49       1.39876      .   S
    C86    C85       1.39904      .   S
    C75    O185      1.24992      .   S
    C141   O225      1.24918      .   S
