# CIF file generated by openbabel 2.4.90, see http://openbabel.sf.net
data_I
_chemical_name_common ''
_cell_length_a 14.575
_cell_length_b 14.7
_cell_length_c 26.013
_cell_angle_alpha 90.15
_cell_angle_beta 90.408
_cell_angle_gamma 90.188
_space_group_name_H-M_alt 'P 1'
_space_group_name_Hall 'P 1'
loop_
    _symmetry_equiv_pos_as_xyz
    x,y,z
loop_
    _atom_site_label
    _atom_site_type_symbol
    _atom_site_fract_x
    _atom_site_fract_y
    _atom_site_fract_z
    _atom_site_occupancy
    N0      N    0.23688   0.77412   0.45175   1.000
    N1      N    0.00096   0.40217   0.77903   1.000
    N2      N    0.26268   0.22180   0.95193   1.000
    N3      N    0.49980   0.09331   0.22118   1.000
    N4      N    0.99672   0.90207   0.72123   1.000
    N5      N    0.75899   0.27361   0.04793   1.000
    N6      N    0.73779   0.77387   0.04835   1.000
    N7      N    0.00118   0.09620   0.27868   1.000
    N8      N    0.99622   0.59580   0.22035   1.000
    N9      N    0.75967   0.22550   0.54890   1.000
    N10     N    0.73741   0.72486   0.54857   1.000
    N11     N    0.49814   0.59507   0.27820   1.000
    N12     N    0.49997   0.40309   0.72174   1.000
    N13     N    0.50009   0.90255   0.77873   1.000
    N14     N    0.24120   0.72210   0.95137   1.000
    N15     N    0.26011   0.27535   0.45120   1.000
    Zr16    Zr   0.23092   0.54735   0.34651   1.000
    O17     O    0.23551   0.46380   0.37595   1.000
    O18     O    0.31276   0.56242   0.32458   1.000
    O19     O    0.15995   0.56028   0.30839   1.000
    O20     O    0.23192   0.61616   0.37988   1.000
    Zr21    Zr   0.73458   0.55847   0.39300   1.000
    O22     O    0.73430   0.61346   0.43736   1.000
    Zr23    Zr   0.76609   0.45297   0.65340   1.000
    O24     O    0.68462   0.43728   0.67536   1.000
    O25     O    0.76491   0.38398   0.62021   1.000
    O26     O    0.83745   0.43932   0.69119   1.000
    O27     O    0.76172   0.53645   0.62389   1.000
    Zr28    Zr   0.73095   0.95272   0.65303   1.000
    O29     O    0.66091   0.93925   0.69089   1.000
    O30     O    0.73205   0.88364   0.61980   1.000
    O31     O    0.73544   0.03645   0.62374   1.000
    O32     O    0.81248   0.93676   0.67491   1.000
    Zr33    Zr   0.76530   0.43737   0.89324   1.000
    O34     O    0.76424   0.38280   0.93721   1.000
    Zr35    Zr   0.72998   0.54696   0.15262   1.000
    O36     O    0.65960   0.55983   0.19042   1.000
    O37     O    0.81165   0.56236   0.17435   1.000
    O38     O    0.73438   0.46316   0.12299   1.000
    O39     O    0.73142   0.61577   0.11947   1.000
    Zr40    Zr   0.23378   0.94859   0.84700   1.000
    O41     O    0.31532   0.93408   0.82510   1.000
    O42     O    0.23530   0.87986   0.88017   1.000
    O43     O    0.16194   0.93618   0.80915   1.000
    O44     O    0.23816   0.03222   0.87678   1.000
    Zr45    Zr   0.76562   0.06193   0.39304   1.000
    O46     O    0.76504   0.11606   0.43754   1.000
    Zr47    Zr   0.23449   0.55873   0.10677   1.000
    O48     O    0.23566   0.61316   0.06261   1.000
    Zr49    Zr   0.76631   0.04716   0.15302   1.000
    O50     O    0.76195   0.96329   0.12355   1.000
    O51     O    0.83760   0.06034   0.19085   1.000
    O52     O    0.68470   0.06175   0.17487   1.000
    O53     O    0.76484   0.11586   0.11965   1.000
    Zr54    Zr   0.73825   0.93770   0.89321   1.000
    O55     O    0.73725   0.88328   0.93735   1.000
    Zr56    Zr   0.26166   0.05806   0.10677   1.000
    O57     O    0.26287   0.11274   0.06287   1.000
    Zr58    Zr   0.26896   0.04709   0.34710   1.000
    O59     O    0.26714   0.11632   0.38020   1.000
    O60     O    0.18694   0.06255   0.32514   1.000
    O61     O    0.26354   0.96349   0.37679   1.000
    O62     O    0.33901   0.05911   0.30918   1.000
    Zr63    Zr   0.26940   0.44847   0.84824   1.000
    O64     O    0.33931   0.43634   0.81011   1.000
    O65     O    0.26531   0.53231   0.87742   1.000
    O66     O    0.18717   0.43382   0.82604   1.000
    O67     O    0.26822   0.37968   0.88119   1.000
    Zr68    Zr   0.26307   0.44135   0.60683   1.000
    O69     O    0.26323   0.38653   0.56243   1.000
    Zr70    Zr   0.23441   0.93768   0.60688   1.000
    O71     O    0.23409   0.88315   0.56278   1.000
    O72     O    0.16295   0.56822   0.14061   1.000
    O73     O    0.33414   0.43175   0.64121   1.000
    O74     O    0.83611   0.42840   0.85917   1.000
    O75     O    0.66672   0.92892   0.85905   1.000
    O76     O    0.16313   0.92876   0.64103   1.000
    O77     O    0.66360   0.56761   0.35870   1.000
    O78     O    0.83639   0.07054   0.35893   1.000
    O79     O    0.33318   0.06672   0.14092   1.000
loop_
    _geom_bond_atom_site_label_1
    _geom_bond_atom_site_label_2
    _geom_bond_distance
    _geom_bond_site_symmetry_2
    _ccdc_geom_bond_type
    Zr16   O17       1.45054      .   S
    N15    O17       3.41460      .   S
    Zr16   O18       1.34393      .   S
    N11    O18       3.00452      .   S
    Zr16   O19       1.44104      .   S
    N8     O19       3.33906  1_655   S
    Zr16   O20       1.33125      .   S
    N0     O20       2.97754      .   S
    Zr21   O22       1.40725      .   S
    N10    O22       3.32055      .   S
    Zr23   O24       1.34080      .   S
    N12    O24       2.99865      .   S
    Zr23   O25       1.33012      .   S
    N9     O25       2.97471      .   S
    Zr23   O26       1.44088      .   S
    N1     O26       3.33711  1_455   S
    Zr23   O27       1.45058      .   S
    N10    O27       3.41464      .   S
    Zr28   O29       1.43716      .   S
    N13    O29       3.32867      .   S
    Zr28   O30       1.33196      .   S
    N10    O30       2.97782      .   S
    Zr28   O31       1.45080  1_565   S
    N9     O31       3.41610      .   S
    Zr28   O32       1.33567      .   S
    N4     O32       2.98132      .   S
    Zr33   O34       1.39884      .   S
    N5     O34       3.30222  1_554   S
    Zr35   O36       1.43870      .   S
    N11    O36       3.33134      .   S
    Zr35   O37       1.33242      .   S
    N8     O37       2.97544      .   S
    Zr35   O38       1.45317      .   S
    N5     O38       3.41966      .   S
    Zr35   O39       1.33111      .   S
    N6     O39       2.97588      .   S
    Zr40   O41       1.33899      .   S
    N13    O41       2.99571      .   S
    Zr40   O42       1.33049      .   S
    N14    O42       2.97273      .   S
    Zr40   O43       1.44305      .   S
    N4     O43       3.34489  1_655   S
    Zr40   O44       1.45230  1_565   S
    N2     O44       3.41618      .   S
    Zr45   O46       1.40319      .   S
    N9     O46       3.31120      .   S
    Zr47   O48       1.40195      .   S
    N14    O48       3.31227  1_556   S
    Zr49   O50       1.45101  1_545   S
    N6     O50       3.41469      .   S
    Zr49   O51       1.43832      .   S
    N7     O51       3.33009  1_455   S
    Zr49   O52       1.33951      .   S
    N3     O52       2.99678      .   S
    Zr49   O53       1.33346      .   S
    N5     O53       2.98110      .   S
    Zr54   O55       1.40135      .   S
    N6     O55       3.30877  1_554   S
    Zr56   O57       1.39850      .   S
    N2     O57       3.30488  1_556   S
    Zr58   O59       1.33190      .   S
    N15    O59       2.97791      .   S
    Zr58   O60       1.34156      .   S
    N7     O60       3.00017      .   S
    Zr58   O61       1.45539  1_545   S
    N0     O61       3.42555      .   S
    Zr58   O62       1.43546      .   S
    N3     O62       3.32576      .   S
    Zr63   O64       1.43813      .   S
    N12    O64       3.32945      .   S
    Zr63   O65       1.44736      .   S
    N14    O65       3.40519      .   S
    Zr63   O66       1.34311      .   S
    N1     O66       3.00330      .   S
    Zr63   O67       1.32742      .   S
    N2     O67       2.96688      .   S
    Zr68   O69       1.40651      .   S
    N15    O69       3.31940      .   S
    Zr70   O71       1.39772      .   S
    N0     O71       3.30005      .   S
    N8     O72       3.23223  1_655   S
    Zr47   O72       1.37655      .   S
    N12    O73       3.21672      .   S
    Zr68   O73       1.37148      .   S
    Zr33   O74       1.37158      .   S
    N1     O74       3.21583  1_455   S
    N13    O75       3.21422      .   S
    Zr54   O75       1.37060      .   S
    Zr70   O76       1.37785      .   S
    N4     O76       3.23416  1_655   S
    N11    O77       3.20986      .   S
    Zr21   O77       1.36848      .   S
    Zr45   O78       1.37118      .   S
    N7     O78       3.21532  1_455   S
    Zr56   O79       1.37012      .   S
    N3     O79       3.21345      .   S
