# CIF file generated by openbabel 2.4.90, see http://openbabel.sf.net
data_I
_chemical_name_common ''
_cell_length_a 14.575
_cell_length_b 14.7
_cell_length_c 26.013
_cell_angle_alpha 90.15
_cell_angle_beta 90.408
_cell_angle_gamma 90.188
_space_group_name_H-M_alt 'P 1'
_space_group_name_Hall 'P 1'
loop_
    _symmetry_equiv_pos_as_xyz
    x,y,z
loop_
    _atom_site_label
    _atom_site_type_symbol
    _atom_site_fract_x
    _atom_site_fract_y
    _atom_site_fract_z
    _atom_site_occupancy
    Zr0     Zr   0.73458   0.55847   0.39300   1.000
    Zr1     Zr   0.73095   0.95272   0.65303   1.000
    Zr2     Zr   0.76530   0.43737   0.89324   1.000
    Zr3     Zr   0.76631   0.04716   0.15302   1.000
    Zr4     Zr   0.26166   0.05806   0.10677   1.000
    Zr5     Zr   0.26940   0.44847   0.84824   1.000
    Zr6     Zr   0.23441   0.93768   0.60688   1.000
    Zr7     Zr   0.23092   0.54735   0.34651   1.000
    Zr8     Zr   0.26307   0.44135   0.60683   1.000
    Zr9     Zr   0.26896   0.04709   0.34710   1.000
    Zr10    Zr   0.23449   0.55873   0.10677   1.000
    Zr11    Zr   0.23378   0.94859   0.84700   1.000
    Zr12    Zr   0.73825   0.93770   0.89321   1.000
    Zr13    Zr   0.72998   0.54696   0.15262   1.000
    Zr14    Zr   0.76562   0.06193   0.39304   1.000
    Zr15    Zr   0.76609   0.45297   0.65340   1.000
    N16     N    0.23688   0.77412   0.45175   1.000
    O17     O    0.23377   0.82862   0.51868   1.000
    O18     O    0.25812   0.87989   0.40648   1.000
    O19     O    0.23293   0.68498   0.41325   1.000
    N20     N    0.58328   0.58753   0.85565   1.000
    O21     O    0.64940   0.53428   0.86977   1.000
    N22     N    0.00096   0.40217   0.77903   1.000
    O23     O    0.89740   0.40913   0.81785   1.000
    O24     O    0.91646   0.42975   0.83237   1.000
    O25     O    0.90881   0.42567   0.72898   1.000
    O26     O    0.10495   0.41917   0.80385   1.000
    N27     N    0.26268   0.22180   0.95193   1.000
    O28     O    0.26409   0.16742   0.01896   1.000
    O29     O    0.24253   0.11585   0.90655   1.000
    O30     O    0.26703   0.31090   0.91414   1.000
    N31     N    0.49980   0.09331   0.22118   1.000
    O32     O    0.40906   0.07114   0.27127   1.000
    O33     O    0.39539   0.08569   0.18230   1.000
    O34     O    0.41402   0.06507   0.16783   1.000
    O35     O    0.60310   0.07634   0.19672   1.000
    N36     N    0.99672   0.90207   0.72123   1.000
    O37     O    0.09009   0.92376   0.77130   1.000
    O38     O    0.10123   0.90919   0.68229   1.000
    O39     O    0.08247   0.93048   0.66806   1.000
    O40     O    0.89401   0.92081   0.69680   1.000
    N41     N    0.75899   0.27361   0.04793   1.000
    O42     O    0.76318   0.32824   0.98118   1.000
    O43     O    0.73878   0.37936   0.09337   1.000
    O44     O    0.76337   0.18455   0.08628   1.000
    N45     N    0.41600   0.40873   0.14516   1.000
    O46     O    0.35007   0.46194   0.13075   1.000
    N47     N    0.73779   0.77387   0.04835   1.000
    O48     O    0.73624   0.82886   0.98149   1.000
    O49     O    0.73287   0.68458   0.08632   1.000
    O50     O    0.75760   0.87942   0.09409   1.000
    N51     N    0.07545   0.91100   0.14160   1.000
    O52     O    0.14308   0.96317   0.12852   1.000
    N53     N    0.00118   0.09620   0.27868   1.000
    O54     O    0.10493   0.07802   0.30317   1.000
    O55     O    0.90890   0.07352   0.22868   1.000
    O56     O    0.89779   0.08983   0.31771   1.000
    O57     O    0.91653   0.06846   0.33191   1.000
    N58     N    0.58193   0.91260   0.35482   1.000
    O59     O    0.64863   0.96556   0.36917   1.000
    N60     N    0.99622   0.59580   0.22035   1.000
    O61     O    0.08899   0.57322   0.27028   1.000
    O62     O    0.10072   0.58880   0.18142   1.000
    O63     O    0.08211   0.56663   0.16747   1.000
    O64     O    0.89331   0.57777   0.19607   1.000
    N65     N    0.92209   0.08201   0.85728   1.000
    O66     O    0.85532   0.02543   0.87080   1.000
    N67     N    0.75967   0.22550   0.54890   1.000
    O68     O    0.76373   0.31499   0.58702   1.000
    O69     O    0.76445   0.17020   0.48205   1.000
    O70     O    0.73992   0.12018   0.59446   1.000
    N71     N    0.73741   0.72486   0.54857   1.000
    O72     O    0.73403   0.66846   0.48172   1.000
    O73     O    0.75735   0.61993   0.59437   1.000
    O74     O    0.73315   0.81457   0.58657   1.000
    N75     N    0.49814   0.59507   0.27820   1.000
    O76     O    0.58922   0.57270   0.22823   1.000
    O77     O    0.60202   0.58751   0.31739   1.000
    O78     O    0.58325   0.56599   0.33140   1.000
    O79     O    0.39460   0.57749   0.30264   1.000
    N80     N    0.42045   0.08087   0.64352   1.000
    O81     O    0.35290   0.02485   0.62980   1.000
    N82     N    0.49997   0.40309   0.72174   1.000
    O83     O    0.40921   0.42421   0.77199   1.000
    O84     O    0.39586   0.41132   0.68255   1.000
    O85     O    0.41456   0.43299   0.66862   1.000
    O86     O    0.60316   0.42159   0.69731   1.000
    N87     N    0.07788   0.58735   0.64245   1.000
    O88     O    0.14523   0.53571   0.62900   1.000
    N89     N    0.50009   0.90255   0.77873   1.000
    O90     O    0.39686   0.91958   0.80321   1.000
    O91     O    0.59086   0.92579   0.72875   1.000
    O92     O    0.60442   0.90950   0.81775   1.000
    O93     O    0.58597   0.93077   0.83203   1.000
    N94     N    0.24120   0.72210   0.95137   1.000
    O95     O    0.23684   0.66759   0.01844   1.000
    O96     O    0.26121   0.61615   0.90660   1.000
    O97     O    0.23682   0.81114   0.91334   1.000
    N98     N    0.92138   0.41310   0.35810   1.000
    O99     O    0.85352   0.46460   0.37127   1.000
    N100    N    0.26011   0.27535   0.45120   1.000
    O101    O    0.26338   0.33172   0.51804   1.000
    O102    O    0.24011   0.38026   0.40540   1.000
    O103    O    0.26532   0.18556   0.41330   1.000
loop_
    _geom_bond_atom_site_label_1
    _geom_bond_atom_site_label_2
    _geom_bond_distance
    _geom_bond_site_symmetry_2
    _ccdc_geom_bond_type
    N16    O17       1.91556      .   S
    Zr6    O17       2.79544      .   S
    N16    O18       1.97778      .   S
    Zr9    O18       2.91079  1_545   S
    N16    O19       1.64769      .   S
    Zr7    O19       2.66251      .   S
    N20    O21       1.29545      .   S
    Zr2    O21       2.29369      .   S
    N22    O23       1.82508  1_455   S
    Zr2    O23       2.78932      .   S
    N22    O24       1.90563  1_455   S
    Zr2    O24       2.72473      .   S
    N22    O25       1.89707  1_455   S
    Zr15   O25       2.88176      .   S
    N22    O26       1.66101      .   S
    Zr5    O26       2.68622      .   S
    N27    O28       1.92013  1_556   S
    Zr4    O28       2.79700      .   S
    N27    O29       1.97161      .   S
    Zr11   O29       2.90460  1_565   S
    N27    O30       1.64098      .   S
    Zr5    O30       2.65484      .   S
    N31    O32       1.89135      .   S
    Zr9    O32       2.87091      .   S
    N31    O33       1.82407      .   S
    Zr4    O33       2.78580      .   S
    N31    O34       1.90535      .   S
    Zr4    O34       2.72244      .   S
    N31    O35       1.65806      .   S
    Zr3    O35       2.67901      .   S
    N36    O37       1.90258  1_655   S
    Zr11   O37       2.88609      .   S
    N36    O38       1.83822  1_655   S
    Zr6    O38       2.80078      .   S
    N36    O39       1.91667  1_655   S
    Zr6    O39       2.73825      .   S
    N36    O40       1.64641      .   S
    Zr1    O40       2.67134      .   S
    N41    O42       1.91636  1_554   S
    Zr2    O42       2.79768      .   S
    N41    O43       1.97463      .   S
    Zr13   O43       2.90634      .   S
    N41    O44       1.64911      .   S
    Zr3    O44       2.66692      .   S
    N45    O46       1.29499      .   S
    Zr10   O46       2.29265      .   S
    N47    O48       1.91972  1_554   S
    Zr12   O48       2.80270      .   S
    N47    O49       1.64640      .   S
    Zr13   O49       2.66222      .   S
    N47    O50       1.97209      .   S
    Zr3    O50       2.90202  1_545   S
    N51    O52       1.29485      .   S
    Zr4    O52       2.29238  1_545   S
    N53    O54       1.65944      .   S
    Zr9    O54       2.68313      .   S
    N53    O55       1.89253  1_455   S
    Zr3    O55       2.87664      .   S
    N53    O56       1.82541  1_455   S
    Zr14   O56       2.78768      .   S
    N53    O57       1.90525  1_455   S
    Zr14   O57       2.72483      .   S
    N58    O59       1.29572      .   S
    Zr14   O59       2.29440  1_545   S
    N60    O61       1.89880  1_655   S
    Zr7    O61       2.88207      .   S
    N60    O62       1.83815  1_655   S
    Zr10   O62       2.79692      .   S
    N60    O63       1.91526  1_655   S
    Zr10   O63       2.73691      .   S
    N60    O64       1.64377      .   S
    Zr13   O64       2.66484      .   S
    N65    O66       1.32803      .   S
    Zr12   O66       2.21763  1_565   S
    N67    O68       1.64608      .   S
    Zr15   O68       2.66025      .   S
    N67    O69       1.91944      .   S
    Zr14   O69       2.80638      .   S
    N67    O70       1.97370      .   S
    Zr1    O70       2.90161  1_565   S
    N71    O72       1.92489      .   S
    Zr0    O72       2.81451      .   S
    N71    O73       1.97252      .   S
    Zr15   O73       2.90116      .   S
    N71    O74       1.64751      .   S
    Zr1    O74       2.66392      .   S
    N75    O76       1.89343      .   S
    Zr13   O76       2.87740      .   S
    N75    O77       1.82311      .   S
    Zr0    O77       2.78200      .   S
    N75    O78       1.90238      .   S
    Zr0    O78       2.71972      .   S
    N75    O79       1.66143      .   S
    Zr7    O79       2.68786      .   S
    N80    O81       1.32781      .   S
    Zr6    O81       2.22420  1_565   S
    N82    O83       1.89201      .   S
    Zr5    O83       2.87626      .   S
    N82    O84       1.82662      .   S
    Zr8    O84       2.78856      .   S
    N82    O85       1.90649      .   S
    Zr8    O85       2.72503      .   S
    N82    O86       1.65871      .   S
    Zr15   O86       2.68160      .   S
    N87    O88       1.29260      .   S
    Zr8    O88       2.28738      .   S
    N89    O90       1.65753      .   S
    Zr11   O90       2.67798      .   S
    N89    O91       1.89232      .   S
    Zr1    O91       2.87432      .   S
    N89    O92       1.82463      .   S
    Zr12   O92       2.78671      .   S
    N89    O93       1.90516      .   S
    Zr12   O93       2.72345      .   S
    N94    O95       1.92327  1_556   S
    Zr10   O95       2.80390      .   S
    N94    O96       1.96605      .   S
    Zr5    O96       2.89473      .   S
    N94    O97       1.64373      .   S
    Zr11   O97       2.66098      .   S
    N98    O99       1.29502      .   S
    Zr0    O99       2.29230      .   S
    N100   O101      1.92419      .   S
    Zr8    O101      2.81302      .   S
    N100   O102      1.97249      .   S
    Zr7    O102      2.90108      .   S
    N100   O103      1.64762      .   S
    Zr9    O103      2.66380      .   S
