# CIF file generated by openbabel 2.4.90, see http://openbabel.sf.net
data_I
_chemical_name_common ''
_cell_length_a 14.575
_cell_length_b 14.7
_cell_length_c 26.013
_cell_angle_alpha 90.15
_cell_angle_beta 90.408
_cell_angle_gamma 90.188
_space_group_name_H-M_alt 'P 1'
_space_group_name_Hall 'P 1'
loop_
    _symmetry_equiv_pos_as_xyz
    x,y,z
loop_
    _atom_site_label
    _atom_site_type_symbol
    _atom_site_fract_x
    _atom_site_fract_y
    _atom_site_fract_z
    _atom_site_occupancy
    N0      N    0.23688   0.77412   0.45175   1.000
    N1      N    0.58328   0.58753   0.85565   1.000
    N2      N    0.00096   0.40217   0.77903   1.000
    N3      N    0.26268   0.22180   0.95193   1.000
    N4      N    0.49980   0.09331   0.22118   1.000
    N5      N    0.99672   0.90207   0.72123   1.000
    N6      N    0.75899   0.27361   0.04793   1.000
    N7      N    0.41600   0.40873   0.14516   1.000
    N8      N    0.73779   0.77387   0.04835   1.000
    N9      N    0.07545   0.91100   0.14160   1.000
    N10     N    0.00118   0.09620   0.27868   1.000
    N11     N    0.58193   0.91260   0.35482   1.000
    N12     N    0.99622   0.59580   0.22035   1.000
    N13     N    0.92209   0.08201   0.85728   1.000
    N14     N    0.75967   0.22550   0.54890   1.000
    N15     N    0.73741   0.72486   0.54857   1.000
    N16     N    0.49814   0.59507   0.27820   1.000
    N17     N    0.42045   0.08087   0.64352   1.000
    N18     N    0.49997   0.40309   0.72174   1.000
    N19     N    0.07788   0.58735   0.64245   1.000
    N20     N    0.50009   0.90255   0.77873   1.000
    N21     N    0.24120   0.72210   0.95137   1.000
    N22     N    0.92138   0.41310   0.35810   1.000
    N23     N    0.26011   0.27535   0.45120   1.000
    Zr24    Zr   0.23092   0.54735   0.34651   1.000
    O25     O    0.23551   0.46380   0.37595   1.000
    O26     O    0.31276   0.56242   0.32458   1.000
    O27     O    0.15995   0.56028   0.30839   1.000
    O28     O    0.23192   0.61616   0.37988   1.000
    Zr29    Zr   0.73458   0.55847   0.39300   1.000
    O30     O    0.79405   0.51153   0.38213   1.000
    O31     O    0.73430   0.61346   0.43736   1.000
    O32     O    0.65891   0.56223   0.36220   1.000
    O33     O    0.66830   0.57299   0.35519   1.000
    Zr34    Zr   0.76609   0.45297   0.65340   1.000
    O35     O    0.68462   0.43728   0.67536   1.000
    O36     O    0.76491   0.38398   0.62021   1.000
    O37     O    0.83745   0.43932   0.69119   1.000
    O38     O    0.76172   0.53645   0.62389   1.000
    Zr39    Zr   0.73095   0.95272   0.65303   1.000
    O40     O    0.66091   0.93925   0.69089   1.000
    O41     O    0.73205   0.88364   0.61980   1.000
    O42     O    0.73544   0.03645   0.62374   1.000
    O43     O    0.81248   0.93676   0.67491   1.000
    Zr44    Zr   0.76530   0.43737   0.89324   1.000
    O45     O    0.76424   0.38280   0.93721   1.000
    O46     O    0.83135   0.42325   0.85554   1.000
    O47     O    0.84088   0.43356   0.86280   1.000
    O48     O    0.70735   0.48582   0.88151   1.000
    Zr49    Zr   0.72998   0.54696   0.15262   1.000
    O50     O    0.65960   0.55983   0.19042   1.000
    O51     O    0.81165   0.56236   0.17435   1.000
    O52     O    0.73438   0.46316   0.12299   1.000
    O53     O    0.73142   0.61577   0.11947   1.000
    Zr54    Zr   0.23378   0.94859   0.84700   1.000
    O55     O    0.31532   0.93408   0.82510   1.000
    O56     O    0.23530   0.87986   0.88017   1.000
    O57     O    0.16194   0.93618   0.80915   1.000
    O58     O    0.23816   0.03222   0.87678   1.000
    Zr59    Zr   0.76562   0.06193   0.39304   1.000
    O60     O    0.70713   0.01374   0.38111   1.000
    O61     O    0.83171   0.07588   0.35538   1.000
    O62     O    0.76504   0.11606   0.43754   1.000
    O63     O    0.84107   0.06519   0.36247   1.000
    Zr64    Zr   0.23449   0.55873   0.10677   1.000
    O65     O    0.29228   0.51033   0.11876   1.000
    O66     O    0.23566   0.61316   0.06261   1.000
    O67     O    0.16761   0.57376   0.14409   1.000
    O68     O    0.15830   0.56268   0.13712   1.000
    Zr69    Zr   0.76631   0.04716   0.15302   1.000
    O70     O    0.76195   0.96329   0.12355   1.000
    O71     O    0.83760   0.06034   0.19085   1.000
    O72     O    0.68470   0.06175   0.17487   1.000
    O73     O    0.76484   0.11586   0.11965   1.000
    Zr74    Zr   0.73825   0.93770   0.89321   1.000
    O75     O    0.79678   0.98157   0.88201   1.000
    O76     O    0.67133   0.92360   0.85548   1.000
    O77     O    0.66211   0.93424   0.86262   1.000
    O78     O    0.73725   0.88328   0.93735   1.000
    Zr79    Zr   0.26166   0.05806   0.10677   1.000
    O80     O    0.32853   0.07187   0.14454   1.000
    O81     O    0.26287   0.11274   0.06287   1.000
    O82     O    0.20237   0.01061   0.11764   1.000
    O83     O    0.33784   0.06156   0.13730   1.000
    Zr84    Zr   0.26896   0.04709   0.34710   1.000
    O85     O    0.26714   0.11632   0.38020   1.000
    O86     O    0.18694   0.06255   0.32514   1.000
    O87     O    0.26354   0.96349   0.37679   1.000
    O88     O    0.33901   0.05911   0.30918   1.000
    Zr89    Zr   0.26940   0.44847   0.84824   1.000
    O90     O    0.33931   0.43634   0.81011   1.000
    O91     O    0.26531   0.53231   0.87742   1.000
    O92     O    0.18717   0.43382   0.82604   1.000
    O93     O    0.26822   0.37968   0.88119   1.000
    Zr94    Zr   0.26307   0.44135   0.60683   1.000
    O95     O    0.26323   0.38653   0.56243   1.000
    O96     O    0.20415   0.48853   0.61791   1.000
    O97     O    0.32946   0.42634   0.64469   1.000
    O98     O    0.33882   0.43717   0.63773   1.000
    Zr99    Zr   0.23441   0.93768   0.60688   1.000
    O100    O    0.29366   0.98127   0.61834   1.000
    O101    O    0.23409   0.88315   0.56278   1.000
    O102    O    0.16782   0.92343   0.64458   1.000
    O103    O    0.15844   0.93408   0.63747   1.000
loop_
    _geom_bond_atom_site_label_1
    _geom_bond_atom_site_label_2
    _geom_bond_distance
    _geom_bond_site_symmetry_2
    _ccdc_geom_bond_type
    Zr24   O25       1.45054      .   S
    N23    O25       3.41460      .   S
    Zr24   O26       1.34393      .   S
    N16    O26       3.00452      .   S
    Zr24   O27       1.44104      .   S
    N12    O27       3.33906  1_655   S
    Zr24   O28       1.33125      .   S
    N0     O28       2.97754      .   S
    Zr29   O30       1.14615      .   S
    N22    O30       2.44096      .   S
    Zr29   O31       1.40725      .   S
    N15    O31       3.32055      .   S
    Zr29   O32       1.35986      .   S
    N16    O32       3.23097      .   S
    Zr29   O33       1.39100      .   S
    N16    O33       3.19466      .   S
    Zr34   O35       1.34080      .   S
    N18    O35       2.99865      .   S
    Zr34   O36       1.33012      .   S
    N14    O36       2.97471      .   S
    Zr34   O37       1.44088      .   S
    N2     O37       3.33711  1_455   S
    Zr34   O38       1.45058      .   S
    N15    O38       3.41464      .   S
    Zr39   O40       1.43716      .   S
    N20    O40       3.32867      .   S
    Zr39   O41       1.33196      .   S
    N15    O41       2.97782      .   S
    Zr39   O42       1.45080  1_565   S
    N14    O42       3.41610      .   S
    Zr39   O43       1.33567      .   S
    N5     O43       2.98132      .   S
    Zr44   O45       1.39884      .   S
    N6     O45       3.30222  1_554   S
    Zr44   O46       1.39466      .   S
    N2     O46       3.20019  1_455   S
    Zr44   O47       1.36236      .   S
    N2     O47       3.23736  1_455   S
    Zr44   O48       1.14684      .   S
    N1     O48       2.44210      .   S
    Zr49   O50       1.43870      .   S
    N16    O50       3.33134      .   S
    Zr49   O51       1.33242      .   S
    N12    O51       2.97544      .   S
    Zr49   O52       1.45317      .   S
    N6     O52       3.41966      .   S
    Zr49   O53       1.33111      .   S
    N8     O53       2.97588      .   S
    Zr54   O55       1.33899      .   S
    N20    O55       2.99571      .   S
    Zr54   O56       1.33049      .   S
    N21    O56       2.97273      .   S
    Zr54   O57       1.44305      .   S
    N5     O57       3.34489  1_655   S
    Zr54   O58       1.45230  1_565   S
    N3     O58       3.41618      .   S
    Zr59   O60       1.14720      .   S
    N11    O60       2.44273  1_565   S
    Zr59   O61       1.39384      .   S
    N10    O61       3.19997  1_455   S
    Zr59   O62       1.40319      .   S
    N14    O62       3.31120      .   S
    Zr59   O63       1.36241      .   S
    N10    O63       3.23657  1_455   S
    Zr64   O65       1.14632      .   S
    N7     O65       2.44112      .   S
    Zr64   O66       1.40195      .   S
    N21    O66       3.31227  1_556   S
    Zr64   O67       1.39846      .   S
    N12    O67       3.21757  1_655   S
    Zr64   O68       1.36846      .   S
    N12    O68       3.25277  1_655   S
    Zr69   O70       1.45101  1_545   S
    N8     O70       3.41469      .   S
    Zr69   O71       1.43832      .   S
    N10    O71       3.33009  1_455   S
    Zr69   O72       1.33951      .   S
    N4     O72       2.99678      .   S
    Zr69   O73       1.33346      .   S
    N6     O73       2.98110      .   S
    Zr74   O75       1.10882      .   S
    N13    O75       2.43583  1_545   S
    Zr74   O76       1.39335      .   S
    N20    O76       3.19873      .   S
    Zr74   O77       1.36173      .   S
    N20    O77       3.23561      .   S
    Zr74   O78       1.40135      .   S
    N8     O78       3.30877  1_554   S
    Zr79   O80       1.39290      .   S
    N4     O80       3.19783      .   S
    Zr79   O81       1.39850      .   S
    N3     O81       3.30488  1_556   S
    Zr79   O82       1.14619      .   S
    N9     O82       2.44087  1_565   S
    Zr79   O83       1.36122      .   S
    N4     O83       3.23495      .   S
    Zr84   O85       1.33190      .   S
    N23    O85       2.97791      .   S
    Zr84   O86       1.34156      .   S
    N10    O86       3.00017      .   S
    Zr84   O87       1.45539  1_545   S
    N0     O87       3.42555      .   S
    Zr84   O88       1.43546      .   S
    N4     O88       3.32576      .   S
    Zr89   O90       1.43813      .   S
    N18    O90       3.32945      .   S
    Zr89   O91       1.44736      .   S
    N21    O91       3.40519      .   S
    Zr89   O92       1.34311      .   S
    N2     O92       3.00330      .   S
    Zr89   O93       1.32742      .   S
    N3     O93       2.96688      .   S
    Zr94   O95       1.40651      .   S
    N23    O95       3.31940      .   S
    Zr94   O96       1.14369      .   S
    N19    O96       2.43605      .   S
    Zr94   O97       1.39428      .   S
    N18    O97       3.20129      .   S
    Zr94   O98       1.36252      .   S
    N18    O98       3.23804      .   S
    Zr99   O100      1.11210      .   S
    N17    O100      2.43895  1_545   S
    Zr99   O101      1.39772      .   S
    N0     O101      3.30005      .   S
    Zr99   O102      1.40039      .   S
    N5     O102      3.21903  1_655   S
    Zr99   O103      1.36912      .   S
    N5     O103      3.25516  1_655   S
