# CIF file generated by openbabel 2.4.90, see http://openbabel.sf.net
data_I
_chemical_name_common ''
_cell_length_a 11.092
_cell_length_b 16.183
_cell_length_c 17.987
_cell_angle_alpha 90.004
_cell_angle_beta 91.265
_cell_angle_gamma 90
_space_group_name_H-M_alt 'P 1'
_space_group_name_Hall 'P 1'
loop_
    _symmetry_equiv_pos_as_xyz
    x,y,z
loop_
    _atom_site_label
    _atom_site_type_symbol
    _atom_site_fract_x
    _atom_site_fract_y
    _atom_site_fract_z
    _atom_site_occupancy
    H0      H    0.18189   1.00000   0.80811   1.000
    H1      H    0.80915   0.99998   0.80101   1.000
    H2      H    0.19219   0.99999   0.66810   1.000
    H3      H    0.80280   0.99999   0.66070   1.000
    H4      H    0.81812   0.00001   0.19189   1.000
    H5      H    0.19087   0.00000   0.19900   1.000
    H6      H    0.80783   0.00001   0.33190   1.000
    H7      H    0.19720   0.99999   0.33930   1.000
    C8      C    0.56367   0.57606   0.00000   1.000
    C9      C    0.43636   0.57606   0.99954   1.000
    C10     C    0.43636   0.42396   0.99954   1.000
    C11     C    0.56367   0.42396   0.00000   1.000
    C12     C    0.10078   0.99997   0.77278   1.000
    C13     C    0.89125   0.00000   0.76879   1.000
    C14     C    0.10588   0.00001   0.69567   1.000
    C15     C    0.99767   0.00003   0.65377   1.000
    C16     C    0.88830   0.99997   0.69153   1.000
    C17     C    0.99889   0.99997   0.57179   1.000
    C18     C    0.89924   0.99999   0.22722   1.000
    C19     C    0.10876   0.00002   0.23121   1.000
    C20     C    0.89414   0.00003   0.30433   1.000
    C21     C    0.00234   0.00002   0.34623   1.000
    C22     C    0.11171   0.99997   0.30847   1.000
    C23     C    0.00112   0.99995   0.42821   1.000
    C24     C    0.62443   0.50001   0.00100   1.000
    C25     C    0.37560   0.50001   0.99909   1.000
    Br26    Br   0.79794   0.50001   0.00000   1.000
    Br27    Br   0.20209   0.50001   0.99874   1.000
    N28     N    0.99547   0.99998   0.80866   1.000
    N29     N    0.10752   0.99996   0.53890   1.000
    N30     N    0.89135   0.00002   0.53469   1.000
    N31     N    0.00455   0.99999   0.19134   1.000
    N32     N    0.89250   0.99999   0.46109   1.000
    N33     N    0.10866   0.99999   0.46530   1.000
loop_
    _geom_bond_atom_site_label_1
    _geom_bond_atom_site_label_2
    _geom_bond_distance
    _geom_bond_site_symmetry_2
    _ccdc_geom_bond_type
    C8     C24       1.40308      .   S
    C8     C9        1.41190  1_554   S
    Br26   C24       1.92503      .   S
    C11    C24       1.40316      .   S
    C11    C10       1.41192  1_554   S
    N31    C18       1.34695  1_455   S
    N31    C19       1.34680  1_565   S
    H4     C18       1.09004  1_545   S
    H5     C19       1.09012      .   S
    C18    C20       1.38927  1_565   S
    C19    C22       1.38943  1_545   S
    C20    H6        1.08794      .   S
    C20    C21       1.40298  1_655   S
    C22    H7        1.08790      .   S
    C22    C21       1.40323  1_565   S
    C21    C23       1.47494  1_545   S
    C23    N32       1.35384  1_455   S
    C23    N33       1.35394      .   S
    N32    N30       1.32418  1_565   S
    N33    N29       1.32418      .   S
    N30    C17       1.35393  1_545   S
    N29    C17       1.35396  1_455   S
    C17    C15       1.47494  1_565   S
    C15    C16       1.40324  1_545   S
    C15    C14       1.40311  1_655   S
    H3     C16       1.08790      .   S
    H2     C14       1.08793  1_565   S
    C16    C13       1.38943  1_565   S
    C14    C12       1.38927  1_545   S
    C13    H1        1.09012  1_545   S
    C13    N28       1.34680  1_545   S
    C12    H0        1.09003      .   S
    C12    N28       1.34700  1_455   S
    Br27   C25       1.92444      .   S
    C25    C9        1.40318      .   S
    C25    C10       1.40309      .   S
