# CIF file generated by openbabel 2.4.90, see http://openbabel.sf.net
data_I
_chemical_name_common ''
_cell_length_a 11.092
_cell_length_b 16.183
_cell_length_c 17.987
_cell_angle_alpha 90.004
_cell_angle_beta 91.265
_cell_angle_gamma 90
_space_group_name_H-M_alt 'P 1'
_space_group_name_Hall 'P 1'
loop_
    _symmetry_equiv_pos_as_xyz
    x,y,z
loop_
    _atom_site_label
    _atom_site_type_symbol
    _atom_site_fract_x
    _atom_site_fract_y
    _atom_site_fract_z
    _atom_site_occupancy
    Mc0     Mc   0.69631   0.73031   0.00042   1.000
    Mc1     Mc   0.69630   0.26970   0.00043   1.000
    Mc2     Mc   0.30372   0.73031   0.99954   1.000
    Mc3     Mc   0.30371   0.26971   0.99954   1.000
