# CIF file generated by openbabel 2.4.90, see http://openbabel.sf.net
data_I
_chemical_name_common ''
_cell_length_a 11.092
_cell_length_b 16.183
_cell_length_c 17.987
_cell_angle_alpha 90.004
_cell_angle_beta 91.265
_cell_angle_gamma 90
_space_group_name_H-M_alt 'P 1'
_space_group_name_Hall 'P 1'
loop_
    _symmetry_equiv_pos_as_xyz
    x,y,z
loop_
    _atom_site_label
    _atom_site_type_symbol
    _atom_site_fract_x
    _atom_site_fract_y
    _atom_site_fract_z
    _atom_site_occupancy
    H0      H    0.74516   0.79851   0.88129   1.000
    H1      H    0.76623   0.79396   0.11938   1.000
    H2      H    0.64891   0.66200   0.12013   1.000
    H3      H    0.62711   0.66687   0.88110   1.000
    H4      H    0.25470   0.79853   0.11870   1.000
    H5      H    0.23393   0.79393   0.88061   1.000
    H6      H    0.35125   0.66197   0.87992   1.000
    H7      H    0.37280   0.66691   0.11895   1.000
    H8      H    0.25471   0.20150   0.11871   1.000
    H9      H    0.23392   0.20607   0.88061   1.000
    H10     H    0.35124   0.33803   0.87993   1.000
    H11     H    0.37281   0.33312   0.11896   1.000
    H12     H    0.74517   0.20149   0.88130   1.000
    H13     H    0.76622   0.20607   0.11938   1.000
    H14     H    0.64890   0.33803   0.12014   1.000
    H15     H    0.62712   0.33313   0.88111   1.000
    C16     C    0.76227   0.80427   0.00031   1.000
    C17     C    0.63056   0.65590   0.00000   1.000
    C18     C    0.72241   0.76839   0.93327   1.000
    C19     C    0.73435   0.76582   0.06758   1.000
    C20     C    0.66913   0.69234   0.06772   1.000
    C21     C    0.65693   0.69504   0.93343   1.000
    C22     C    0.23773   0.80426   0.99967   1.000
    C23     C    0.36948   0.65591   0.99942   1.000
    C24     C    0.27753   0.76841   0.06674   1.000
    C25     C    0.26575   0.76580   0.93243   1.000
    C26     C    0.33096   0.69232   0.93231   1.000
    C27     C    0.34302   0.69506   0.06661   1.000
    C28     C    0.23773   0.19576   0.99968   1.000
    C29     C    0.36947   0.34412   0.99943   1.000
    C30     C    0.27753   0.23162   0.06674   1.000
    C31     C    0.26574   0.23420   0.93243   1.000
    C32     C    0.33096   0.30769   0.93232   1.000
    C33     C    0.34302   0.30497   0.06662   1.000
    C34     C    0.76227   0.19575   0.00032   1.000
    C35     C    0.63056   0.34411   0.00000   1.000
    C36     C    0.72242   0.23161   0.93327   1.000
    C37     C    0.73435   0.23420   0.06758   1.000
    C38     C    0.66912   0.30768   0.06773   1.000
    C39     C    0.65693   0.30496   0.93343   1.000
loop_
    _geom_bond_atom_site_label_1
    _geom_bond_atom_site_label_2
    _geom_bond_distance
    _geom_bond_site_symmetry_2
    _ccdc_geom_bond_type
    C17    C20       1.41125      .   S
    C17    C21       1.39155  1_554   S
    C35    C38       1.41130      .   S
    C35    C39       1.39145  1_554   S
    C16    C19       1.40117      .   S
    C16    C18       1.40114  1_554   S
    C34    C37       1.40116      .   S
    C34    C36       1.40109  1_554   S
    C27    C24       1.39164      .   S
    C27    H7        1.09049      .   S
    C27    C23       1.40140  1_554   S
    C33    C30       1.39164      .   S
    C33    H11       1.09049      .   S
    C33    C29       1.40140  1_554   S
    C24    H4        1.08893      .   S
    C24    C22       1.40118  1_554   S
    C30    H8        1.08891      .   S
    C30    C28       1.40120  1_554   S
    C19    C20       1.39196      .   S
    C19    H1        1.08899      .   S
    C37    C38       1.39197      .   S
    C37    H13       1.08901      .   S
    C20    H2        1.09058      .   S
    C38    H14       1.09056      .   S
    H6     C26       1.09057      .   S
    H10    C32       1.09058      .   S
    H5     C25       1.08902      .   S
    H9     C31       1.08901      .   S
    H3     C21       1.09049      .   S
    H15    C39       1.09048      .   S
    H0     C18       1.08892      .   S
    H12    C36       1.08892      .   S
    C26    C25       1.39196      .   S
    C26    C23       1.40147      .   S
    C32    C31       1.39197      .   S
    C32    C29       1.40151      .   S
    C25    C22       1.40118      .   S
    C31    C28       1.40112      .   S
    C18    C21       1.39164      .   S
    C36    C39       1.39164      .   S
