# CIF file generated by openbabel 2.4.90, see http://openbabel.sf.net
data_I
_chemical_name_common ''
_cell_length_a 11.092
_cell_length_b 16.183
_cell_length_c 17.987
_cell_angle_alpha 90.004
_cell_angle_beta 91.265
_cell_angle_gamma 90
_space_group_name_H-M_alt 'P 1'
_space_group_name_Hall 'P 1'
loop_
    _symmetry_equiv_pos_as_xyz
    x,y,z
loop_
    _atom_site_label
    _atom_site_type_symbol
    _atom_site_fract_x
    _atom_site_fract_y
    _atom_site_fract_z
    _atom_site_occupancy
    N0      N    0.50002   0.50001   0.99974   1.000
    N1      N    0.00001   0.99999   0.50000   1.000
    Zr2     Zr   0.00000   0.00001   0.99996   1.000
    O3      O    0.87424   0.10684   0.00010   1.000
    O4      O    0.00119   0.00000   0.15839   1.000
    O5      O    0.87424   0.89318   0.00009   1.000
    O6      O    0.12576   0.89317   0.99982   1.000
    O7      O    0.99882   1.00000   0.84157   1.000
    O8      O    0.12576   0.10684   0.99982   1.000
loop_
    _geom_bond_atom_site_label_1
    _geom_bond_atom_site_label_2
    _geom_bond_distance
    _geom_bond_site_symmetry_2
    _ccdc_geom_bond_type
    Zr2    O3        2.22146  1_456   S
    N0     O3        7.59689  1_556   S
    Zr2    O4        2.84948  1_556   S
    N1     O4        6.14485  1_565   S
    Zr2    O5        2.22144  1_446   S
    N0     O5        7.59687  1_556   S
    Zr2    O6        2.22148  1_545   S
    N0     O6        7.59708      .   S
    Zr2    O7        2.84871  1_445   S
    N1     O7        6.14406  1_455   S
    Zr2    O8        2.22150      .   S
    N0     O8        7.59710      .   S
