# CIF file generated by openbabel 2.4.90, see http://openbabel.sf.net
data_I
_chemical_name_common 'VESTA_phase_1'
_cell_length_a 20.818
_cell_length_b 14.184
_cell_length_c 14.212
_cell_angle_alpha 105.285
_cell_angle_beta 97.023
_cell_angle_gamma 95.798
_space_group_name_H-M_alt 'P 1'
_space_group_name_Hall 'P 1'
loop_
    _symmetry_equiv_pos_as_xyz
    x,y,z
loop_
    _atom_site_label
    _atom_site_type_symbol
    _atom_site_fract_x
    _atom_site_fract_y
    _atom_site_fract_z
    _atom_site_occupancy
    Zn0     Zn   0.30551   0.24213   0.68203   1.000
    Zn1     Zn   0.80551   0.24213   0.68204   1.000
    Zn2     Zn   0.44401   0.31749   0.76071   1.000
    Zn3     Zn   0.94401   0.31749   0.76071   1.000
    Zn4     Zn   0.19449   0.75789   0.31793   1.000
    Zn5     Zn   0.69449   0.75789   0.31790   1.000
    Zn6     Zn   0.05599   0.68252   0.23925   1.000
    Zn7     Zn   0.55599   0.68253   0.23925   1.000
    H8      H    0.49997   0.40686   0.48361   1.000
    H9      H    0.99997   0.40686   0.48361   1.000
    H10     H    0.47459   0.42142   0.30192   1.000
    H11     H    0.97459   0.42142   0.30192   1.000
    H12     H    0.25296   0.27299   0.17971   1.000
    H13     H    0.75296   0.27300   0.17971   1.000
    H14     H    0.23475   0.26077   0.98873   1.000
    H15     H    0.73476   0.26077   0.98873   1.000
    H16     H    0.23402   0.03569   0.61130   1.000
    H17     H    0.73403   0.03569   0.61132   1.000
    H18     H    0.18124   0.30940   0.61244   1.000
    H19     H    0.68124   0.30940   0.61244   1.000
    H20     H    0.12157   0.95118   0.54391   1.000
    H21     H    0.62158   0.95118   0.54390   1.000
    H22     H    0.06389   0.23739   0.54982   1.000
    H23     H    0.56389   0.23739   0.54983   1.000
    H24     H    0.48069   0.10252   0.50179   1.000
    H25     H    0.98069   0.10252   0.50179   1.000
    H26     H    0.24797   0.52145   0.59140   1.000
    H27     H    0.74797   0.52144   0.59140   1.000
    H28     H    0.27498   0.70211   0.57643   1.000
    H29     H    0.77498   0.70211   0.57643   1.000
    H30     H    0.49752   0.81655   0.72670   1.000
    H31     H    0.99752   0.81655   0.72671   1.000
    H32     H    0.01599   0.00000   0.74012   1.000
    H33     H    0.51599   0.00000   0.74012   1.000
    H34     H    0.01728   0.39055   0.96680   1.000
    H35     H    0.51728   0.39055   0.96683   1.000
    H36     H    0.06539   0.38399   0.69146   1.000
    H37     H    0.56539   0.38399   0.69146   1.000
    H38     H    0.13019   0.45830   0.05035   1.000
    H39     H    0.63019   0.45831   0.05035   1.000
    H40     H    0.18314   0.44675   0.76241   1.000
    H41     H    0.68314   0.44675   0.76241   1.000
    H42     H    0.26775   0.49649   0.89698   1.000
    H43     H    0.76775   0.49649   0.89698   1.000
    H44     H    0.00002   0.59314   0.51635   1.000
    H45     H    0.50003   0.59315   0.51635   1.000
    H46     H    0.02540   0.57859   0.69804   1.000
    H47     H    0.52541   0.57859   0.69804   1.000
    H48     H    0.24704   0.72698   0.82024   1.000
    H49     H    0.74704   0.72699   0.82024   1.000
    H50     H    0.26525   0.73922   0.00000   1.000
    H51     H    0.76525   0.73923   0.00000   1.000
    H52     H    0.26598   0.96432   0.38865   1.000
    H53     H    0.76598   0.96432   0.38865   1.000
    H54     H    0.31876   0.69061   0.38751   1.000
    H55     H    0.81876   0.69061   0.38751   1.000
    H56     H    0.37843   0.04884   0.45607   1.000
    H57     H    0.87843   0.04884   0.45607   1.000
    H58     H    0.43611   0.76262   0.45013   1.000
    H59     H    0.93611   0.76262   0.45013   1.000
    H60     H    0.01931   0.89750   0.49817   1.000
    H61     H    0.51932   0.89750   0.49817   1.000
    H62     H    0.25204   0.47857   0.40853   1.000
    H63     H    0.75204   0.47857   0.40853   1.000
    H64     H    0.22503   0.29790   0.42352   1.000
    H65     H    0.72503   0.29791   0.42352   1.000
    H66     H    0.00248   0.18347   0.27325   1.000
    H67     H    0.50248   0.18347   0.27325   1.000
    H68     H    0.48401   0.99243   0.25984   1.000
    H69     H    0.98401   0.99243   0.25985   1.000
    H70     H    0.48272   0.60946   0.03312   1.000
    H71     H    0.98272   0.60946   0.03310   1.000
    H72     H    0.43462   0.61602   0.30850   1.000
    H73     H    0.93462   0.61602   0.30850   1.000
    H74     H    0.36981   0.54171   0.94961   1.000
    H75     H    0.86982   0.54171   0.94961   1.000
    H76     H    0.31686   0.55326   0.23755   1.000
    H77     H    0.81687   0.55326   0.23755   1.000
    H78     H    0.23225   0.50351   0.10298   1.000
    H79     H    0.73225   0.50353   0.10298   1.000
    C80     C    0.40508   0.28361   0.54830   1.000
    C81     C    0.90508   0.28361   0.54837   1.000
    C82     C    0.41107   0.30244   0.45227   1.000
    C83     C    0.91107   0.30244   0.45227   1.000
    C84     C    0.45810   0.36588   0.42979   1.000
    C85     C    0.95810   0.36588   0.42900   1.000
    C86     C    0.44445   0.37340   0.33257   1.000
    C87     C    0.94446   0.37340   0.33257   1.000
    C88     C    0.38680   0.31489   0.27982   1.000
    C89     C    0.88680   0.31490   0.27980   1.000
    C90     C    0.35783   0.30364   0.17899   1.000
    C91     C    0.85784   0.30364   0.17899   1.000
    C92     C    0.29208   0.28197   0.13708   1.000
    C93     C    0.79208   0.28197   0.13708   1.000
    C94     C    0.28214   0.27599   0.03554   1.000
    C95     C    0.78214   0.27599   0.03554   1.000
    C96     C    0.33985   0.29262   0.99958   1.000
    C97     C    0.83985   0.29263   0.99958   1.000
    C98     C    0.35019   0.29250   0.89857   1.000
    C99     C    0.85019   0.29250   0.89857   1.000
    C100    C    0.19464   0.07721   0.59625   1.000
    C101    C    0.69464   0.07721   0.59625   1.000
    C102    C    0.16498   0.23075   0.59756   1.000
    C103    C    0.66499   0.23075   0.59756   1.000
    C104    C    0.13121   0.03114   0.55979   1.000
    C105    C    0.63121   0.03114   0.55979   1.000
    C106    C    0.10031   0.19013   0.56228   1.000
    C107    C    0.60031   0.19013   0.56228   1.000
    C108    C    0.08135   0.08797   0.54360   1.000
    C109    C    0.58136   0.08797   0.54360   1.000
    C110    C    0.01277   0.04789   0.50970   1.000
    C111    C    0.51277   0.04789   0.50974   1.000
    C112    C    0.34270   0.45246   0.71559   1.000
    C113    C    0.84270   0.45246   0.71559   1.000
    C114    C    0.33750   0.54886   0.69624   1.000
    C115    C    0.83750   0.54886   0.69620   1.000
    C116    C    0.29050   0.57342   0.63240   1.000
    C117    C    0.79050   0.57342   0.63243   1.000
    C118    C    0.30499   0.67017   0.62478   1.000
    C119    C    0.80499   0.67017   0.62478   1.000
    C120    C    0.36323   0.72051   0.68362   1.000
    C121    C    0.86323   0.72051   0.68362   1.000
    C122    C    0.39262   0.82057   0.69531   1.000
    C123    C    0.89262   0.82057   0.69531   1.000
    C124    C    0.45845   0.86053   0.71762   1.000
    C125    C    0.95845   0.86053   0.71762   1.000
    C126    C    0.46852   0.96213   0.72421   1.000
    C127    C    0.96852   0.96213   0.72421   1.000
    C128    C    0.41083   0.00000   0.70742   1.000
    C129    C    0.91083   0.00000   0.70742   1.000
    C130    C    0.40045   0.10176   0.70849   1.000
    C131    C    0.90045   0.10176   0.70849   1.000
    C132    C    0.05575   0.40457   0.92475   1.000
    C133    C    0.55575   0.40458   0.92475   1.000
    C134    C    0.08284   0.40027   0.77021   1.000
    C135    C    0.58284   0.40027   0.77021   1.000
    C136    C    0.11941   0.44113   0.97021   1.000
    C137    C    0.61941   0.44113   0.97021   1.000
    C138    C    0.14766   0.43556   0.81020   1.000
    C139    C    0.64766   0.43556   0.81020   1.000
    C140    C    0.16798   0.45581   0.91253   1.000
    C141    C    0.66798   0.45582   0.91253   1.000
    C142    C    0.23666   0.48967   0.95202   1.000
    C143    C    0.73666   0.48967   0.95202   1.000
    C144    C    0.09492   0.71638   0.45159   1.000
    C145    C    0.59492   0.71639   0.45159   1.000
    C146    C    0.08893   0.69754   0.54769   1.000
    C147    C    0.58893   0.69756   0.54769   1.000
    C148    C    0.04190   0.63411   0.57010   1.000
    C149    C    0.54190   0.63412   0.57016   1.000
    C150    C    0.05554   0.62660   0.66739   1.000
    C151    C    0.55554   0.62661   0.66739   1.000
    C152    C    0.11320   0.68510   0.72013   1.000
    C153    C    0.61320   0.68511   0.72013   1.000
    C154    C    0.14216   0.69635   0.82097   1.000
    C155    C    0.64217   0.69636   0.82097   1.000
    C156    C    0.20792   0.71802   0.86287   1.000
    C157    C    0.70792   0.71803   0.86287   1.000
    C158    C    0.21786   0.72401   0.96440   1.000
    C159    C    0.71786   0.72401   0.96441   1.000
    C160    C    0.16015   0.70739   0.00000   1.000
    C161    C    0.66015   0.70739   0.00000   1.000
    C162    C    0.14981   0.70752   0.10139   1.000
    C163    C    0.64981   0.70752   0.10139   1.000
    C164    C    0.30537   0.92281   0.40372   1.000
    C165    C    0.80537   0.92281   0.40372   1.000
    C166    C    0.33502   0.76927   0.40240   1.000
    C167    C    0.83502   0.76927   0.40239   1.000
    C168    C    0.36880   0.96887   0.44010   1.000
    C169    C    0.86880   0.96887   0.44018   1.000
    C170    C    0.39969   0.80988   0.43768   1.000
    C171    C    0.89969   0.80989   0.43768   1.000
    C172    C    0.41865   0.91205   0.45636   1.000
    C173    C    0.91865   0.91205   0.45636   1.000
    C174    C    0.48723   0.95212   0.49022   1.000
    C175    C    0.98724   0.95212   0.49022   1.000
    C176    C    0.15730   0.54755   0.28436   1.000
    C177    C    0.65730   0.54755   0.28436   1.000
    C178    C    0.16250   0.45115   0.30371   1.000
    C179    C    0.66250   0.45116   0.30371   1.000
    C180    C    0.20950   0.42659   0.36752   1.000
    C181    C    0.70950   0.42660   0.36750   1.000
    C182    C    0.19501   0.32984   0.37517   1.000
    C183    C    0.69502   0.32985   0.37517   1.000
    C184    C    0.13678   0.27950   0.31630   1.000
    C185    C    0.63677   0.27950   0.31633   1.000
    C186    C    0.10738   0.17945   0.30465   1.000
    C187    C    0.60738   0.17945   0.30465   1.000
    C188    C    0.04155   0.13948   0.28234   1.000
    C189    C    0.54155   0.13949   0.28234   1.000
    C190    C    0.03148   0.03789   0.27575   1.000
    C191    C    0.53148   0.03789   0.27575   1.000
    C192    C    0.08917   0.99996   0.29255   1.000
    C193    C    0.58917   0.99996   0.29254   1.000
    C194    C    0.09955   0.89826   0.29148   1.000
    C195    C    0.59955   0.89826   0.29148   1.000
    C196    C    0.44425   0.59544   0.07521   1.000
    C197    C    0.94425   0.59544   0.07521   1.000
    C198    C    0.41716   0.59975   0.22975   1.000
    C199    C    0.91716   0.59974   0.22975   1.000
    C200    C    0.38060   0.55887   0.02975   1.000
    C201    C    0.88060   0.55887   0.02975   1.000
    C202    C    0.35235   0.56444   0.18970   1.000
    C203    C    0.85235   0.56445   0.18976   1.000
    C204    C    0.33203   0.54419   0.08743   1.000
    C205    C    0.83203   0.54420   0.08743   1.000
    C206    C    0.26334   0.51033   0.04794   1.000
    C207    C    0.76334   0.51034   0.04794   1.000
    S208    S    0.35021   0.25012   0.35188   1.000
    S209    S    0.85021   0.25012   0.35188   1.000
    S210    S    0.40695   0.31500   0.09120   1.000
    S211    S    0.90695   0.31500   0.09120   1.000
    S212    S    0.39943   0.64675   0.74879   1.000
    S213    S    0.89943   0.64675   0.74879   1.000
    S214    S    0.34363   0.91023   0.68400   1.000
    S215    S    0.84363   0.91023   0.68400   1.000
    S216    S    0.14980   0.74986   0.64807   1.000
    S217    S    0.64980   0.74987   0.64807   1.000
    S218    S    0.09305   0.68501   0.90876   1.000
    S219    S    0.59306   0.68502   0.90876   1.000
    S220    S    0.10057   0.35327   0.25117   1.000
    S221    S    0.60057   0.35328   0.25117   1.000
    S222    S    0.15637   0.08979   0.31596   1.000
    S223    S    0.65637   0.08979   0.31596   1.000
    N224    N    0.21189   0.17598   0.61618   1.000
    N225    N    0.71189   0.17598   0.61618   1.000
    N226    N    0.03720   0.38322   0.82586   1.000
    N227    N    0.53720   0.38323   0.82586   1.000
    N228    N    0.28811   0.82403   0.38379   1.000
    N229    N    0.78811   0.82403   0.38378   1.000
    N230    N    0.46280   0.61681   0.17410   1.000
    N231    N    0.96280   0.61679   0.17410   1.000
    O232    O    0.30021   0.27966   0.83310   1.000
    O233    O    0.80022   0.27966   0.83310   1.000
    O234    O    0.41010   0.30539   0.88636   1.000
    O235    O    0.91010   0.30540   0.88636   1.000
    O236    O    0.35274   0.23190   0.55423   1.000
    O237    O    0.85274   0.23190   0.55423   1.000
    O238    O    0.45279   0.32216   0.61842   1.000
    O239    O    0.95279   0.32216   0.61842   1.000
    O240    O    0.45037   0.16634   0.72323   1.000
    O241    O    0.95037   0.16634   0.72323   1.000
    O242    O    0.34054   0.11554   0.69455   1.000
    O243    O    0.84054   0.11554   0.69450   1.000
    O244    O    0.39468   0.44495   0.76911   1.000
    O245    O    0.89468   0.44495   0.76911   1.000
    O246    O    0.29483   0.38366   0.67571   1.000
    O247    O    0.79483   0.38366   0.67571   1.000
    O248    O    0.19979   0.72037   0.16686   1.000
    O249    O    0.69979   0.72037   0.16686   1.000
    O250    O    0.08990   0.69463   0.11360   1.000
    O251    O    0.58990   0.69463   0.11360   1.000
    O252    O    0.14726   0.76808   0.44573   1.000
    O253    O    0.64726   0.76810   0.44573   1.000
    O254    O    0.04721   0.67782   0.38153   1.000
    O255    O    0.54721   0.67783   0.38153   1.000
    O256    O    0.04963   0.83368   0.27675   1.000
    O257    O    0.54963   0.83368   0.27674   1.000
    O258    O    0.15946   0.88448   0.30542   1.000
    O259    O    0.65946   0.88448   0.30540   1.000
    O260    O    0.10532   0.55506   0.23084   1.000
    O261    O    0.60532   0.55507   0.23084   1.000
    O262    O    0.20518   0.61635   0.32424   1.000
    O263    O    0.70518   0.61636   0.32424   1.000
loop_
    _geom_bond_atom_site_label_1
    _geom_bond_atom_site_label_2
    _geom_bond_distance
    _geom_bond_site_symmetry_2
    _ccdc_geom_bond_type
    C161   C163      1.48230      .   S
    C161   S219      1.72738  1_554   S
    C161   C159      1.38161  1_554   S
    C160   C162      1.48228      .   S
    C160   S218      1.72738  1_554   S
    C160   C158      1.38169  1_554   S
    H51    C159      1.02620  1_554   S
    H50    C158      1.02623  1_554   S
    C201   C197      1.38478      .   S
    C201   C205      1.40991      .   S
    C201   H75       1.08954  1_554   S
    C200   C196      1.38476      .   S
    C200   C204      1.40992      .   S
    C200   H74       1.08955  1_554   S
    H71    C197      1.08947      .   S
    H70    C196      1.08927      .   S
    C95    C93       1.41118      .   S
    C95    H15       1.08774  1_554   S
    C95    C97       1.38438  1_554   S
    C94    C92       1.41118      .   S
    C94    H14       1.08773  1_554   S
    C94    C96       1.38437  1_554   S
    C207   C205      1.45365      .   S
    C207   H79       1.09142      .   S
    C207   C143      1.35056  1_554   S
    C206   C204      1.45364      .   S
    C206   H78       1.09142      .   S
    C206   C142      1.35058  1_554   S
    H39    C137      1.08953  1_554   S
    H38    C136      1.08954  1_554   S
    C197   N231      1.35472      .   S
    C196   N230      1.35470      .   S
    C204   C202      1.40677      .   S
    C205   C203      1.40757      .   S
    S210   C90       1.73566      .   S
    S210   C96       1.73063  1_554   S
    S211   C91       1.73566      .   S
    S211   C97       1.73063  1_554   S
    C163   O251      1.28160      .   S
    C163   O249      1.27162      .   S
    C162   O250      1.28160      .   S
    C162   O248      1.27162      .   S
    O251   Zn7       2.04013      .   S
    O250   Zn6       2.04016      .   S
    C92    C90       1.39358      .   S
    C92    H12       1.08942      .   S
    C93    C91       1.39360      .   S
    C93    H13       1.08942      .   S
    O248   Zn4       2.09101      .   S
    O249   Zn5       2.09060      .   S
    N230   C198      1.35089      .   S
    N230   Zn7       2.05689      .   S
    N231   C199      1.35088      .   S
    N231   Zn6       2.05683  1_655   S
    C91    C89       1.44585      .   S
    C90    C88       1.44611      .   S
    C202   C198      1.38587      .   S
    C202   H76       1.09055      .   S
    C203   C199      1.38568      .   S
    C203   H77       1.08995      .   S
    C199   H73       1.08872      .   S
    C198   H72       1.08873      .   S
    O260   Zn6       2.15145      .   S
    O260   C176      1.27499      .   S
    O261   Zn7       2.15144      .   S
    O261   C177      1.27499      .   S
    Zn6    O256      2.09056      .   S
    Zn6    O254      2.07023      .   S
    Zn7    O257      2.09055      .   S
    Zn7    O255      2.07019      .   S
    S220   C178      1.73316      .   S
    S220   C184      1.73756      .   S
    S221   C179      1.73315      .   S
    S221   C185      1.73784      .   S
    H68    C191      1.08775  1_565   S
    H69    C190      1.08770  1_665   S
    H66    C188      1.08942      .   S
    H67    C189      1.08939      .   S
    C191   C189      1.41147      .   S
    C191   C193      1.38454  1_545   S
    C190   C188      1.41145      .   S
    C190   C192      1.38457  1_545   S
    O257   C195      1.27130      .   S
    O256   C194      1.27131      .   S
    C89    C87       1.39360      .   S
    C89    S209      1.73768      .   S
    C88    C86       1.39352      .   S
    C88    S208      1.73745      .   S
    C189   C187      1.39349      .   S
    C188   C186      1.39347      .   S
    C176   C178      1.47571      .   S
    C176   O262      1.28090      .   S
    C177   C179      1.47570      .   S
    C177   O263      1.28091      .   S
    C195   C193      1.47655      .   S
    C195   O259      1.28141      .   S
    C194   C192      1.47651      .   S
    C194   O258      1.28146      .   S
    C193   S223      1.73020  1_565   S
    C192   S222      1.73020  1_565   S
    H11    C87       1.08818      .   S
    H10    C86       1.08820      .   S
    C179   C181      1.38528      .   S
    C178   C180      1.38546      .   S
    C187   S223      1.73575      .   S
    C187   C185      1.44626      .   S
    C186   S222      1.73576      .   S
    C186   C184      1.44634      .   S
    O259   Zn5       2.04654      .   S
    O258   Zn4       2.04658      .   S
    C184   C182      1.39354      .   S
    C185   C183      1.39338      .   S
    Zn5    O263      2.06602      .   S
    Zn5    N229      2.06801      .   S
    Zn5    O253      2.14824      .   S
    Zn4    O262      2.06592      .   S
    Zn4    N228      2.06797      .   S
    Zn4    O252      2.14788      .   S
    C86    C84       1.41028      .   S
    C87    C85       1.39934      .   S
    S208   C82       1.73246      .   S
    S209   C83       1.73247      .   S
    C181   C183      1.41043      .   S
    C181   H63       1.08755      .   S
    C180   C182      1.41032      .   S
    C180   H62       1.08747      .   S
    C182   H64       1.08817      .   S
    C183   H65       1.08817      .   S
    O254   C144      1.28002      .   S
    O255   C145      1.28003      .   S
    N229   C167      1.35103      .   S
    N229   C165      1.35509      .   S
    N228   C166      1.35103      .   S
    N228   C164      1.35509      .   S
    H54    C166      1.08892      .   S
    H55    C167      1.08893      .   S
    H53    C165      1.08908      .   S
    H52    C164      1.08909      .   S
    C167   C171      1.38636      .   S
    C166   C170      1.38636      .   S
    C165   C169      1.38530      .   S
    C164   C168      1.38513      .   S
    C85    C83       1.39130      .   S
    C85    H9        1.09283      .   S
    C84    C82       1.38580      .   S
    C84    H8        1.08756      .   S
    C170   H58       1.08999      .   S
    C170   C172      1.40781      .   S
    C171   H59       1.09002      .   S
    C171   C173      1.40781      .   S
    C168   H56       1.08880  1_565   S
    C168   C172      1.41020      .   S
    C169   H57       1.08890  1_565   S
    C169   C173      1.40994      .   S
    O253   C145      1.27479      .   S
    O252   C144      1.27480      .   S
    C144   C146      1.47631      .   S
    C145   C147      1.47631      .   S
    C82    C80       1.47534      .   S
    C83    C81       1.47632      .   S
    C172   C174      1.45507      .   S
    C173   C175      1.45507      .   S
    C175   H60       1.09149  1_655   S
    C175   C110      1.35061  1_665   S
    C174   H61       1.09155      .   S
    C174   C111      1.35058  1_565   S
    H25    C110      1.09137  1_655   S
    H24    C111      1.09154      .   S
    C110   C108      1.45513      .   S
    C111   C109      1.45507      .   S
    H45    C149      1.08753      .   S
    H44    C148      1.08714      .   S
    C109   C105      1.40998      .   S
    C109   C107      1.40780      .   S
    C108   C104      1.40997      .   S
    C108   C106      1.40780      .   S
    H21    C105      1.08889  1_565   S
    H20    C104      1.08892  1_565   S
    C147   C149      1.38570      .   S
    C147   S217      1.73240      .   S
    C146   C148      1.38527      .   S
    C146   S216      1.73241      .   S
    C80    O236      1.27512      .   S
    C80    O238      1.28051      .   S
    C81    O237      1.27479      .   S
    C81    O239      1.27995      .   S
    H22    C106      1.09003      .   S
    H23    C107      1.09000      .   S
    O236   Zn0       2.14780      .   S
    O237   Zn1       2.14794      .   S
    C105   C101      1.38529      .   S
    C104   C100      1.38528      .   S
    C107   C103      1.38635      .   S
    C106   C102      1.38635      .   S
    C148   C150      1.41122      .   S
    C149   C151      1.41041      .   S
    H29    C119      1.08815      .   S
    H28    C118      1.08816      .   S
    H27    C117      1.08754      .   S
    H26    C116      1.08742      .   S
    C100   H16       1.08900      .   S
    C100   N224      1.35509      .   S
    C101   H17       1.08908      .   S
    C101   N225      1.35510      .   S
    C102   H18       1.08893      .   S
    C102   N224      1.35104      .   S
    C103   H19       1.08894      .   S
    C103   N225      1.35103      .   S
    N224   Zn0       2.06794      .   S
    N225   Zn1       2.06797      .   S
    O238   Zn2       2.07021      .   S
    O239   Zn3       2.07022      .   S
    C118   C116      1.41018      .   S
    C118   C120      1.39336      .   S
    C119   C117      1.41033      .   S
    C119   C121      1.39337      .   S
    C116   C114      1.38571      .   S
    C117   C115      1.38508      .   S
    S217   C153      1.73743      .   S
    S216   C152      1.73740      .   S
    C151   H47       1.08817      .   S
    C151   C153      1.39348      .   S
    C150   H46       1.08814      .   S
    C150   C152      1.39350      .   S
    O246   Zn0       2.06587      .   S
    O246   C112      1.28089      .   S
    O247   Zn1       2.06591      .   S
    O247   C113      1.28091      .   S
    Zn0    O242      2.04657      .   S
    Zn0    O232      2.09102      .   S
    Zn1    O243      2.04634      .   S
    Zn1    O233      2.09088      .   S
    C121   C123      1.44623      .   S
    C121   S213      1.73788      .   S
    C120   C122      1.44623      .   S
    C120   S212      1.73790      .   S
    S215   C123      1.73577      .   S
    S215   C129      1.72971  1_565   S
    S214   C122      1.73577      .   S
    S214   C128      1.72973  1_565   S
    H36    C134      1.08872      .   S
    H37    C135      1.08872      .   S
    O243   C131      1.28150      .   S
    O242   C130      1.28144      .   S
    C122   C124      1.39349      .   S
    C123   C125      1.39347      .   S
    C115   C113      1.47595      .   S
    C115   S213      1.73324      .   S
    C114   C112      1.47570      .   S
    C114   S212      1.73317      .   S
    C129   C131      1.47732      .   S
    C129   C127      1.38414  1_545   S
    C128   C130      1.47732      .   S
    C128   C126      1.38412  1_545   S
    C131   O241      1.27129      .   S
    C130   O240      1.27130      .   S
    C112   O244      1.27499      .   S
    C113   O245      1.27498      .   S
    C124   C126      1.41147      .   S
    C124   H30       1.08937      .   S
    C125   C127      1.41147      .   S
    C125   H31       1.08942      .   S
    C153   C155      1.44624      .   S
    C152   C154      1.44624      .   S
    O241   Zn3       2.09060      .   S
    O240   Zn2       2.09059      .   S
    C127   H32       1.04414  1_665   S
    C126   H33       1.04421  1_565   S
    Zn2    O244      2.15141      .   S
    Zn2    N227      2.05688      .   S
    Zn2    O234      2.04012      .   S
    Zn3    O245      2.15142      .   S
    Zn3    N226      2.05682  1_655   S
    Zn3    O235      2.04012      .   S
    H40    C138      1.08996      .   S
    H41    C139      1.08995      .   S
    C134   C138      1.38567      .   S
    C134   N226      1.35089      .   S
    C135   C139      1.38569      .   S
    C135   N227      1.35088      .   S
    C139   C141      1.40755      .   S
    C138   C140      1.40756      .   S
    H48    C156      1.08939      .   S
    H49    C157      1.08940      .   S
    C155   C157      1.39357      .   S
    C155   S219      1.73562      .   S
    C154   C156      1.39359      .   S
    C154   S218      1.73560      .   S
    N226   C132      1.35473      .   S
    N227   C133      1.35473      .   S
    O232   C98       1.27161      .   S
    O233   C99       1.27163      .   S
    C156   C158      1.41101      .   S
    C157   C159      1.41116      .   S
    O235   C99       1.28160      .   S
    O234   C98       1.28162      .   S
    H42    C142      1.09140      .   S
    H43    C143      1.09141      .   S
    C98    C96       1.47699      .   S
    C99    C97       1.47698      .   S
    C140   C142      1.45366      .   S
    C140   C136      1.40992      .   S
    C141   C143      1.45366      .   S
    C141   C137      1.40991      .   S
    C132   H34       1.08889      .   S
    C132   C136      1.38477      .   S
    C133   H35       1.08917      .   S
    C133   C137      1.38478      .   S
    Zn0    Zn2       2.94360      .   S
    Zn1    Zn3       2.94360      .   S
    Zn4    Zn6       2.94362      .   S
    Zn5    Zn7       2.94355      .   S
