# CIF file generated by openbabel 2.4.90, see http://openbabel.sf.net
data_I
_chemical_name_common ''
_cell_length_a 14.732
_cell_length_b 14.779
_cell_length_c 15.757
_cell_angle_alpha 117.881
_cell_angle_beta 97.495
_cell_angle_gamma 89.92
_space_group_name_H-M_alt 'P 1'
_space_group_name_Hall 'P 1'
loop_
    _symmetry_equiv_pos_as_xyz
    x,y,z
loop_
    _atom_site_label
    _atom_site_type_symbol
    _atom_site_fract_x
    _atom_site_fract_y
    _atom_site_fract_z
    _atom_site_occupancy
    Cd0     Cd   0.62483   0.05792   0.00010   1.000
    Cd1     Cd   0.87507   0.94247   0.10000   1.000
    Cu2     Cu   0.25043   0.99987   0.50010   1.000
    Cu3     Cu   0.75044   0.00019   0.50000   1.000
    Cu4     Cu   0.49988   0.50023   0.50003   1.000
    H5      H    0.22714   0.65401   0.33528   1.000
    H6      H    0.72710   0.65386   0.33540   1.000
    H7      H    0.26111   0.52918   0.39805   1.000
    H8      H    0.76054   0.52941   0.39864   1.000
    H9      H    0.32155   0.59049   0.57240   1.000
    H10     H    0.82071   0.59103   0.57315   1.000
    H11     H    0.34828   0.77827   0.68378   1.000
    H12     H    0.84761   0.77884   0.68415   1.000
    H13     H    0.34791   0.94278   0.71591   1.000
    H14     H    0.84717   0.94314   0.71594   1.000
    H15     H    0.37710   0.10311   0.76658   1.000
    H16     H    0.87679   0.10342   0.76644   1.000
    H17     H    0.33309   0.16604   0.69769   1.000
    H18     H    0.83256   0.16644   0.69773   1.000
    H19     H    0.16843   0.20792   0.69245   1.000
    H20     H    0.66798   0.20801   0.69257   1.000
    H21     H    0.03234   0.24917   0.78389   1.000
    H22     H    0.53203   0.24931   0.78423   1.000
    H23     H    0.02747   0.19155   0.90978   1.000
    H24     H    0.52743   0.19175   0.91020   1.000
    H25     H    0.28000   0.06744   0.86561   1.000
    H26     H    0.77974   0.06726   0.86542   1.000
    H27     H    0.02332   0.31835   0.66468   1.000
    H28     H    0.52342   0.31816   0.66468   1.000
    H29     H    0.49025   0.13070   0.60146   1.000
    Cd30    Cd   0.12484   0.05802   0.30000   1.000
    H31     H    0.98952   0.13100   0.60190   1.000
    H32     H    0.42987   0.01845   0.42701   1.000
    H33     H    0.92878   0.01860   0.42758   1.000
    H34     H    0.40244   0.09570   0.31607   1.000
    H35     H    0.90154   0.09552   0.31630   1.000
    H36     H    0.40255   0.22828   0.28428   1.000
    H37     H    0.90174   0.22799   0.28420   1.000
    H38     H    0.37295   0.33835   0.23372   1.000
    H39     H    0.87274   0.33787   0.23347   1.000
    H40     H    0.41764   0.46960   0.30222   1.000
    H41     H    0.91717   0.46924   0.30218   1.000
    H42     H    0.08184   0.51524   0.30710   1.000
    H43     H    0.58213   0.51515   0.30690   1.000
    H44     H    0.21773   0.46435   0.21537   1.000
    H45     H    0.71794   0.46409   0.21511   1.000
    H46     H    0.22217   0.28104   0.08968   1.000
    H47     H    0.72220   0.28068   0.08947   1.000
    H48     H    0.46979   0.20251   0.13483   1.000
    H49     H    0.96965   0.20253   0.13462   1.000
    H50     H    0.27523   0.34596   0.66450   1.000
    H51     H    0.77414   0.34653   0.66432   1.000
    H52     H    0.23965   0.47060   0.60188   1.000
    H53     H    0.73868   0.47085   0.60133   1.000
    H54     H    0.17741   0.40907   0.42786   1.000
    H55     H    0.67737   0.40902   0.42000   1.000
    H56     H    0.15027   0.22126   0.31689   1.000
    H57     H    0.65083   0.22114   0.31617   1.000
    H58     H    0.15199   0.05690   0.28467   1.000
    H59     H    0.65201   0.05697   0.28439   1.000
    H60     H    0.12315   0.89645   0.23393   1.000
    H61     H    0.62312   0.89675   0.23380   1.000
    H62     H    0.16783   0.83348   0.30254   1.000
    H63     H    0.66750   0.83376   0.30250   1.000
    H64     H    0.33240   0.79215   0.30730   1.000
    H65     H    0.83213   0.79224   0.30737   1.000
    H66     H    0.46809   0.75095   0.21527   1.000
    H67     H    0.96799   0.75101   0.21555   1.000
    H68     H    0.47224   0.80872   0.08939   1.000
    H69     H    0.97237   0.80873   0.08965   1.000
    H70     H    0.21987   0.93296   0.13479   1.000
    H71     H    0.71990   0.93282   0.13456   1.000
    H72     H    0.47676   0.68208   0.33532   1.000
    H73     H    0.97537   0.68185   0.33526   1.000
    H74     H    0.01071   0.86892   0.39794   1.000
    H75     H    0.51093   0.86930   0.39820   1.000
    H76     H    0.07246   0.98088   0.57208   1.000
    H77     H    0.57188   0.98155   0.57256   1.000
    H78     H    0.09940   0.90372   0.68313   1.000
    H79     H    0.59881   0.90444   0.68360   1.000
    H80     H    0.09782   0.77156   0.71537   1.000
    H81     H    0.59829   0.77195   0.71561   1.000
    H82     H    0.12693   0.66156   0.76613   1.000
    H83     H    0.62696   0.66216   0.76641   1.000
    H84     H    0.08204   0.53038   0.69760   1.000
    H85     H    0.58239   0.53085   0.69780   1.000
    H86     H    0.41789   0.48516   0.69306   1.000
    H87     H    0.91745   0.48507   0.69290   1.000
    H88     H    0.28199   0.53616   0.78483   1.000
    H89     H    0.78168   0.53636   0.78480   1.000
    H90     H    0.27761   0.71957   0.91039   1.000
    H91     H    0.77763   0.71976   0.91048   1.000
    H92     H    0.03026   0.79754   0.86510   1.000
    H93     H    0.53007   0.79785   0.86519   1.000
    C94     C    0.26934   0.78786   0.47281   1.000
    C95     C    0.76912   0.78800   0.47283   1.000
    C96     C    0.25403   0.68015   0.41146   1.000
    C97     C    0.75384   0.68023   0.41164   1.000
    C98     C    0.97653   0.73708   0.84443   1.000
    N99     N    0.29966   0.00770   0.62947   1.000
    N100    N    0.79958   0.00798   0.62928   1.000
    N101    N    0.15321   0.12739   0.89211   1.000
    C102    C    0.27265   0.61136   0.44700   1.000
    C103    C    0.77214   0.61161   0.44750   1.000
    C104    C    0.30674   0.64546   0.54555   1.000
    C105    C    0.80604   0.64588   0.54607   1.000
    C106    C    0.32200   0.74963   0.60701   1.000
    C107    C    0.82141   0.75005   0.60734   1.000
    C108    C    0.30338   0.82220   0.57300   1.000
    C109    C    0.80299   0.82247   0.57317   1.000
    C110    C    0.31825   0.92805   0.64246   1.000
    C111    C    0.81782   0.92831   0.64238   1.000
    C112    C    0.31758   0.10770   0.71901   1.000
    C113    C    0.81720   0.10795   0.71890   1.000
    C114    C    0.23516   0.13547   0.77239   1.000
    C115    C    0.73482   0.13545   0.77233   1.000
    C116    C    0.16405   0.18702   0.74970   1.000
    C117    C    0.66366   0.18705   0.74979   1.000
    C118    C    0.08873   0.20893   0.79960   1.000
    C119    C    0.58844   0.20902   0.79987   1.000
    C120    C    0.08558   0.17769   0.86995   1.000
    C121    C    0.58542   0.17778   0.87000   1.000
    C122    C    0.22649   0.10737   0.84461   1.000
    C123    C    0.72624   0.10726   0.84451   1.000
    C124    C    0.48099   0.31539   0.52730   1.000
    C125    C    0.98072   0.31524   0.52724   1.000
    C126    C    0.49656   0.26857   0.58847   1.000
    C127    C    0.99630   0.26861   0.58854   1.000
    C128    C    0.47841   0.16422   0.55262   1.000
    C129    C    0.97780   0.16436   0.55290   1.000
    C130    C    0.44438   0.10030   0.45409   1.000
    C131    C    0.94354   0.10037   0.45448   1.000
    C132    C    0.42873   0.14343   0.39285   1.000
    C133    C    0.92798   0.14334   0.39307   1.000
    C134    C    0.44699   0.24989   0.42703   1.000
    C135    C    0.94650   0.24970   0.42701   1.000
    C136    C    0.43198   0.28674   0.35779   1.000
    C137    C    0.93151   0.28640   0.35764   1.000
    C138    C    0.43271   0.38990   0.28113   1.000
    C139    C    0.93240   0.38954   0.28090   1.000
    C140    C    0.01479   0.36341   0.22747   1.000
    C141    C    0.51500   0.36341   0.22750   1.000
    C142    C    0.08604   0.43715   0.24993   1.000
    C143    C    0.58630   0.43705   0.24982   1.000
    C144    C    0.16125   0.40874   0.19984   1.000
    C145    C    0.66144   0.40853   0.19965   1.000
    C146    C    0.16417   0.30729   0.12965   1.000
    C147    C    0.66426   0.30704   0.12952   1.000
    C148    C    0.02327   0.26312   0.15540   1.000
    C149    C    0.52339   0.26306   0.15554   1.000
    C150    C    0.23225   0.21196   0.52735   1.000
    C151    C    0.73187   0.21229   0.52709   1.000
    C152    C    0.24743   0.31972   0.58857   1.000
    C153    C    0.74681   0.32008   0.58820   1.000
    C154    C    0.22797   0.38840   0.55301   1.000
    C155    C    0.72737   0.38863   0.55240   1.000
    C156    C    0.19288   0.35417   0.45473   1.000
    C157    C    0.69275   0.35425   0.45405   1.000
    C158    C    0.17743   0.24999   0.39347   1.000
    C159    C    0.67762   0.25003   0.39286   1.000
    C160    C    0.19694   0.17750   0.42734   1.000
    C161    C    0.69700   0.17770   0.42694   1.000
    C162    C    0.18190   0.07166   0.35805   1.000
    C163    C    0.68198   0.07181   0.35778   1.000
    C164    C    0.18291   0.89202   0.28130   1.000
    C165    C    0.68280   0.89221   0.28124   1.000
    C166    C    0.26518   0.86465   0.22769   1.000
    C167    C    0.76508   0.86466   0.22762   1.000
    C168    C    0.33649   0.81308   0.25004   1.000
    C169    C    0.83633   0.81310   0.25007   1.000
    C170    C    0.41158   0.79123   0.19978   1.000
    C171    C    0.91151   0.79126   0.19995   1.000
    C172    C    0.41434   0.82259   0.12951   1.000
    C173    C    0.91439   0.82256   0.12960   1.000
    C174    C    0.27350   0.89296   0.15553   1.000
    C175    C    0.77349   0.89286   0.15541   1.000
    C176    C    0.01800   0.68463   0.47255   1.000
    C177    C    0.51932   0.68492   0.47267   1.000
    C178    C    0.00297   0.73136   0.41120   1.000
    C179    C    0.50387   0.73166   0.41146   1.000
    C180    C    0.02229   0.83546   0.44685   1.000
    C181    C    0.52260   0.83589   0.44714   1.000
    C182    C    0.05711   0.89921   0.54520   1.000
    C183    C    0.55696   0.89978   0.54558   1.000
    C184    C    0.07245   0.85611   0.60650   1.000
    C185    C    0.57233   0.85672   0.60692   1.000
    C186    C    0.05308   0.74988   0.57262   1.000
    C187    C    0.55356   0.75039   0.57291   1.000
    C188    C    0.06807   0.71314   0.64196   1.000
    C189    C    0.56843   0.71359   0.64222   1.000
    C190    C    0.06710   0.61012   0.71876   1.000
    C191    C    0.56724   0.61055   0.71895   1.000
    C192    C    0.48492   0.63693   0.77251   1.000
    C193    C    0.98480   0.63671   0.77240   1.000
    C194    C    0.41367   0.56324   0.75021   1.000
    C195    C    0.91339   0.56317   0.75008   1.000
    C196    C    0.33847   0.59175   0.80030   1.000
    C197    C    0.83826   0.59183   0.80026   1.000
    C198    C    0.33559   0.69323   0.87040   1.000
    C199    C    0.83556   0.69332   0.87040   1.000
    C200    C    0.47649   0.73727   0.84449   1.000
    N201    N    0.65306   0.12737   0.89218   1.000
    N202    N    0.45026   0.37936   0.37080   1.000
    N203    N    0.95022   0.37888   0.37050   1.000
    N204    N    0.09645   0.23526   0.10777   1.000
    N205    N    0.59651   0.23510   0.10779   1.000
    N206    N    0.20061   0.99197   0.37096   1.000
    N207    N    0.70065   0.99220   0.37081   1.000
    N208    N    0.34658   0.87298   0.10772   1.000
    N209    N    0.84666   0.87290   0.10773   1.000
    N210    N    0.04948   0.62064   0.62906   1.000
    N211    N    0.54958   0.62114   0.62930   1.000
    N212    N    0.40331   0.76521   0.89216   1.000
    N213    N    0.90341   0.76517   0.89219   1.000
    Cl214   Cl   0.54723   0.99625   0.10700   1.000
    Cl215   Cl   0.70253   0.88939   0.89300   1.000
    Cl216   Cl   0.79731   0.11101   0.10708   1.000
    O217    O    0.25338   0.84957   0.43506   1.000
    O218    O    0.75317   0.84962   0.43499   1.000
    O219    O    0.49682   0.41473   0.56520   1.000
    O220    O    0.99657   0.41456   0.56502   1.000
    O221    O    0.24970   0.15036   0.56499   1.000
    O222    O    0.74902   0.15079   0.56490   1.000
    O223    O    0.00056   0.58556   0.43491   1.000
    O224    O    0.50336   0.58560   0.43486   1.000
loop_
    _geom_bond_atom_site_label_1
    _geom_bond_atom_site_label_2
    _geom_bond_distance
    _geom_bond_site_symmetry_2
    _ccdc_geom_bond_type
    Cd0    Cl214     2.62979  1_545   S
    Cd0    Cl216     2.75045      .   S
    Cd0    N205      2.43647      .   S
    Cd0    N201      2.43647  1_554   S
    Cd0    Cl215     2.63180  1_544   S
    H68    C172      1.09005      .   S
    H47    C147      1.09004      .   S
    H69    C173      1.08953      .   S
    H46    C146      1.09005      .   S
    N208   C172      1.34793      .   S
    N208   C174      1.34774      .   S
    N209   C173      1.34763      .   S
    N209   C175      1.34777      .   S
    N209   Cd1       1.17416      .   S
    N204   C146      1.34802      .   S
    N204   C148      1.34767      .   S
    N205   C147      1.34796      .   S
    N205   C149      1.34788      .   S
    C172   C170      1.39069      .   S
    C147   C145      1.39074      .   S
    C173   C171      1.39154      .   S
    C146   C144      1.39079      .   S
    H71    C175      1.09197      .   S
    H49    C148      1.09235  1_655   S
    H70    C174      1.09198      .   S
    H48    C149      1.09206      .   S
    C148   C140      1.40147      .   S
    C175   C167      1.40141      .   S
    C174   C166      1.40153      .   S
    C149   C141      1.40134      .   S
    C145   H45       1.09009      .   S
    C145   C143      1.39403      .   S
    C170   H66       1.09013      .   S
    C170   C168      1.39417      .   S
    C144   H44       1.09010      .   S
    C144   C142      1.39423      .   S
    C171   H67       1.09009      .   S
    C171   C169      1.39414      .   S
    C140   C142      1.40020      .   S
    C140   C139      1.51396  1_455   S
    C141   C143      1.40012      .   S
    C141   C138      1.51440      .   S
    C167   C169      1.40018      .   S
    C167   C165      1.51427      .   S
    C166   C168      1.40026      .   S
    C166   C164      1.51399      .   S
    H39    C139      1.10039      .   S
    H38    C138      1.10068      .   S
    H61    C165      1.10071      .   S
    H60    C164      1.10039      .   S
    C143   H43       1.09007      .   S
    C142   H42       1.09047      .   S
    C168   H64       1.09032      .   S
    C169   H65       1.09035      .   S
    C139   H41       1.09528      .   S
    C139   N203      1.48263      .   S
    C138   H40       1.09532      .   S
    C138   N202      1.48249      .   S
    C165   H63       1.09543      .   S
    C165   N207      1.48272      .   S
    C164   H62       1.09568      .   S
    C164   N206      1.48297      .   S
    H37    C137      1.10047      .   S
    H36    C136      1.10009      .   S
    H59    C163      1.10011      .   S
    H58    Cd30      0.48996      .   S
    H34    C132      1.09161      .   S
    H57    C159      1.09172      .   S
    H35    C133      1.09213      .   S
    H56    C158      1.09167      .   S
    H73    C178      1.08973  1_655   S
    H5     C96       1.09073      .   S
    H72    C179      1.09057      .   S
    H6     C97       1.09056      .   S
    C137   N203      1.30861      .   S
    C137   C135      1.42443      .   S
    C163   N207      1.30869  1_545   S
    C163   C161      1.42422      .   S
    C136   N202      1.30861      .   S
    C136   C134      1.42412      .   S
    C162   N206      1.30877  1_545   S
    C162   C160      1.42425      .   S
    C162   Cd30      1.10068      .   S
    N202   Cu4       2.02111      .   S
    N207   Cu3       2.02029  1_565   S
    N206   Cu2       2.02020      .   S
    C132   C134      1.41732      .   S
    C132   C130      1.38116      .   S
    C159   C161      1.41722      .   S
    C159   C157      1.38124      .   S
    C133   C135      1.41711      .   S
    C133   C131      1.38149      .   S
    C158   C160      1.41742      .   S
    C158   C156      1.38121      .   S
    H74    C180      1.09066      .   S
    H7     C102      1.09045      .   S
    H75    C181      1.09058      .   S
    H8     C103      1.09053      .   S
    C178   C180      1.38381      .   S
    C178   C176      1.42422      .   S
    C96    C102      1.38353      .   S
    C96    C94       1.42283      .   S
    C179   C181      1.38422      .   S
    C179   C177      1.42289      .   S
    C97    C103      1.38421      .   S
    C97    C95       1.42306      .   S
    H55    C157      1.16983      .   S
    C161   C151      1.43188      .   S
    H32    C130      1.08861      .   S
    C135   C125      1.43160      .   S
    C134   C124      1.43133      .   S
    C160   C150      1.43163      .   S
    H33    C131      1.08858      .   S
    H54    C156      1.08861      .   S
    O224   C177      1.30810      .   S
    O224   Cu4       1.96848      .   S
    O223   C176      1.30800      .   S
    O218   C95       1.30805      .   S
    O218   Cu3       1.97006  1_565   S
    O217   C94       1.30811      .   S
    O217   Cu2       1.96686      .   S
    C180   C182      1.40738      .   S
    C102   C104      1.40815      .   S
    C181   C183      1.40727      .   S
    C103   C105      1.40741      .   S
    C157   C155      1.40639      .   S
    C130   C128      1.40737      .   S
    C131   C129      1.40695      .   S
    C156   C154      1.40732      .   S
    C176   C186      1.43179      .   S
    C177   C187      1.43165      .   S
    C94    C108      1.43045      .   S
    C95    C109      1.43173      .   S
    Cu3    O222      1.96897      .   S
    Cu3    N100      2.02069      .   S
    Cu4    O219      1.96948      .   S
    Cu4    N211      2.02205      .   S
    Cu2    O221      1.96673  1_565   S
    Cu2    N99       2.02209  1_565   S
    C151   O222      1.30815      .   S
    C151   C153      1.42283      .   S
    C125   O220      1.30808      .   S
    C125   C127      1.42293      .   S
    C124   O219      1.30799      .   S
    C124   C126      1.42349      .   S
    C150   O221      1.30806      .   S
    C150   C152      1.42302      .   S
    C182   H76       1.08859      .   S
    C182   C184      1.38116      .   S
    C104   H9        1.08798      .   S
    C104   C106      1.38142      .   S
    C183   H77       1.08868      .   S
    C183   C185      1.38143      .   S
    C105   H10       1.08861      .   S
    C105   C107      1.38107      .   S
    C155   C153      1.38496      .   S
    C155   H53       1.09067      .   S
    C128   C126      1.38415      .   S
    C128   H29       1.09052      .   S
    C129   C127      1.38400      .   S
    C129   H31       1.09091      .   S
    C154   C152      1.38405      .   S
    C154   H52       1.09059      .   S
    C186   C184      1.41742      .   S
    C186   C188      1.42434      .   S
    C187   C185      1.41701      .   S
    C187   C189      1.42449      .   S
    C108   C106      1.41805      .   S
    C108   C110      1.42482      .   S
    C109   C107      1.41731      .   S
    C109   C111      1.42387      .   S
    C153   H51       1.09063      .   S
    C126   H28       1.09063      .   S
    C127   H27       1.09068  1_655   S
    C152   H50       1.09004      .   S
    C184   H78       1.09170      .   S
    C185   H79       1.09101      .   S
    C106   H11       1.09168      .   S
    C107   H12       1.09169      .   S
    N210   C188      1.30835      .   S
    N210   C190      1.48292      .   S
    N100   C111      1.30878  1_545   S
    N100   C113      1.48279      .   S
    N211   C189      1.30830      .   S
    N211   C191      1.48266      .   S
    N99    C110      1.30867  1_545   S
    N99    C112      1.48265      .   S
    C188   H80       1.10011      .   S
    C189   H81       1.10008      .   S
    C111   H14       1.10019      .   S
    C110   H13       1.10016      .   S
    H19    C116      1.09052      .   S
    H20    C117      1.09048      .   S
    H87    C195      1.09041      .   S
    H86    C194      1.09042      .   S
    H84    C190      1.09522      .   S
    H17    C112      1.09539      .   S
    H18    C113      1.09522      .   S
    H85    C191      1.09548      .   S
    C190   H82       1.10070      .   S
    C190   C193      1.51460  1_455   S
    C113   H16       1.10067      .   S
    C113   C115      1.51399      .   S
    C191   H83       1.10072      .   S
    C191   C192      1.51427      .   S
    C112   H15       1.10059      .   S
    C112   C114      1.51400      .   S
    C116   C114      1.40021      .   S
    C116   C118      1.39385      .   S
    C117   C115      1.40013      .   S
    C117   C119      1.39415      .   S
    C195   C193      1.40025      .   S
    C195   C197      1.39404      .   S
    C194   C192      1.40010      .   S
    C194   C196      1.39415      .   S
    C115   C123      1.40141      .   S
    C114   C122      1.40135      .   S
    C193   C98       1.40151      .   S
    C192   C200      1.40144      .   S
    H21    C118      1.08980      .   S
    H22    C119      1.09008      .   S
    H89    C197      1.09015      .   S
    H88    C196      1.09009      .   S
    C118   C120      1.39151      .   S
    C119   C121      1.38792      .   S
    C197   C199      1.39066      .   S
    C196   C198      1.39068      .   S
    C98    H92       1.09248  1_655   S
    C98    N213      1.34794      .   S
    C200   H93       1.09207      .   S
    C200   N212      1.34787      .   S
    C123   H26       1.09204      .   S
    C123   N201      1.34779      .   S
    C122   H25       1.09199      .   S
    C122   N101      1.34767      .   S
    C120   N101      1.34794      .   S
    C120   H23       1.09002      .   S
    C121   N201      1.34922      .   S
    C121   H24       1.09192      .   S
    C199   N213      1.34788      .   S
    C199   H91       1.09026      .   S
    C198   N212      1.34800      .   S
    C198   H90       1.09005      .   S
