# CIF file generated by openbabel 2.4.90, see http://openbabel.sf.net
data_I
_chemical_name_common ''
_cell_length_a 14.732
_cell_length_b 14.779
_cell_length_c 15.757
_cell_angle_alpha 117.881
_cell_angle_beta 97.495
_cell_angle_gamma 89.92
_space_group_name_H-M_alt 'P 1'
_space_group_name_Hall 'P 1'
loop_
    _symmetry_equiv_pos_as_xyz
    x,y,z
loop_
    _atom_site_label
    _atom_site_type_symbol
    _atom_site_fract_x
    _atom_site_fract_y
    _atom_site_fract_z
    _atom_site_occupancy
    Cd0     Cd   0.37483   0.94237   0.99976   1.000
    Cu1     Cu   0.99963   0.49990   0.49991   1.000
    Cl2     Cl   0.04744   0.99640   0.10726   1.000
    Cl3     Cl   0.20235   0.88929   0.89283   1.000
    Cl4     Cl   0.45255   0.00396   0.89272   1.000
    Cl5     Cl   0.95242   0.00425   0.89301   1.000
    Cl6     Cl   0.29739   0.11108   0.10676   1.000
loop_
    _geom_bond_atom_site_label_1
    _geom_bond_atom_site_label_2
    _geom_bond_distance
    _geom_bond_site_symmetry_2
    _ccdc_geom_bond_type
    Cl6    Cd0       2.63117  1_544   S
    Cl4    Cd0       2.63182  1_545   S
    Cl3    Cd0       2.75009      .   S
