# CIF file generated by openbabel 2.4.90, see http://openbabel.sf.net
data_I
_chemical_name_common ''
_cell_length_a 14.732
_cell_length_b 14.779
_cell_length_c 15.757
_cell_angle_alpha 117.881
_cell_angle_beta 97.495
_cell_angle_gamma 89.92
_space_group_name_H-M_alt 'P 1'
_space_group_name_Hall 'P 1'
loop_
    _symmetry_equiv_pos_as_xyz
    x,y,z
loop_
    _atom_site_label
    _atom_site_type_symbol
    _atom_site_fract_x
    _atom_site_fract_y
    _atom_site_fract_z
    _atom_site_occupancy
    Zr0     Zr   0.12484   0.05802   0.30000   1.000
    Zr1     Zr   0.62483   0.05792   0.00010   1.000
    Zr2     Zr   0.37483   0.94237   0.99976   1.000
    Zr3     Zr   0.87507   0.94247   0.10000   1.000
    Zr4     Zr   0.25043   0.99987   0.50010   1.000
    Zr5     Zr   0.75044   0.00019   0.50000   1.000
    Zr6     Zr   0.99963   0.49990   0.49991   1.000
    Zr7     Zr   0.49988   0.50023   0.50003   1.000
    Zr8     Zr   0.15199   0.05690   0.28467   1.000
    Zr9     Zr   0.04744   0.99640   0.10726   1.000
    Zr10    Zr   0.54723   0.99625   0.10700   1.000
    Zr11    Zr   0.20235   0.88929   0.89283   1.000
    Zr12    Zr   0.70253   0.88939   0.89300   1.000
    Zr13    Zr   0.45255   0.00396   0.89272   1.000
    Zr14    Zr   0.95242   0.00425   0.89301   1.000
    Zr15    Zr   0.29739   0.11108   0.10676   1.000
    Zr16    Zr   0.79731   0.11101   0.10708   1.000
    O17     O    0.58603   0.02708   0.05355   1.000
    O18     O    0.71107   0.08446   0.05359   1.000
    O19     O    0.66368   0.97365   0.94655   1.000
    O20     O    0.33611   0.02673   0.05326   1.000
    O21     O    0.13842   0.05746   0.29234   1.000
    O22     O    0.41369   0.97316   0.94624   1.000
    O23     O    0.28859   0.91583   0.94630   1.000
    N24     N    0.74387   0.94883   0.66062   1.000
    O25     O    0.75944   0.97646   0.61263   1.000
    O26     O    0.69141   0.02074   0.80338   1.000
    O27     O    0.74784   0.93687   0.56406   1.000
    N28     N    0.24425   0.94865   0.66047   1.000
    O29     O    0.25965   0.97622   0.61263   1.000
    O30     O    0.24808   0.93669   0.56402   1.000
    N31     N    0.00577   0.28843   0.33942   1.000
    O32     O    0.99034   0.36391   0.38731   1.000
    O33     O    0.00193   0.37283   0.43594   1.000
    N34     N    0.50614   0.28846   0.33936   1.000
    O35     O    0.49061   0.36413   0.38739   1.000
    O36     O    0.55841   0.21748   0.19665   1.000
    O37     O    0.50225   0.37297   0.43599   1.000
    N38     N    0.26015   0.05103   0.34171   1.000
    O39     O    0.20676   0.05794   0.33537   1.000
    O40     O    0.24284   0.02348   0.38862   1.000
    O41     O    0.31043   0.97935   0.19772   1.000
    O42     O    0.25511   0.06308   0.43713   1.000
    N43     N    0.75598   0.05137   0.33912   1.000
    O44     O    0.74076   0.02378   0.38726   1.000
    O45     O    0.80842   0.97953   0.22149   1.000
    O46     O    0.75285   0.06343   0.43579   1.000
    N47     N    0.49420   0.71181   0.66056   1.000
    O48     O    0.50946   0.63625   0.61261   1.000
    O49     O    0.44163   0.78280   0.80326   1.000
    O50     O    0.49791   0.62736   0.56400   1.000
    N51     N    0.99388   0.71152   0.66038   1.000
    O52     O    0.00922   0.63589   0.61243   1.000
    O53     O    0.99699   0.62712   0.56389   1.000
loop_
    _geom_bond_atom_site_label_1
    _geom_bond_atom_site_label_2
    _geom_bond_distance
    _geom_bond_site_symmetry_2
    _ccdc_geom_bond_type
    Zr1    O17       1.31490      .   S
    Zr10   O17       1.31490  1_565   S
    Zr1    O18       1.37523      .   S
    Zr16   O18       1.37523      .   S
    Zr1    O19       1.31590  1_544   S
    Zr12   O19       1.31590      .   S
    Zr15   O20       1.31559      .   S
    Zr2    O20       1.31559  1_566   S
    Zr8    O21       0.24498      .   S
    Zr0    O21       0.24498      .   S
    Zr13   O22       1.31591  1_545   S
    Zr2    O22       1.31591      .   S
    Zr11   O23       1.37505      .   S
    Zr2    O23       1.37505      .   S
    N24    O25       1.06079      .   S
    Zr5    O25       1.95210  1_545   S
    N24    O26       2.23662  1_565   S
    Zr1    O26       3.17351  1_554   S
    N24    O27       1.45644      .   S
    Zr5    O27       1.67018  1_545   S
    N28    O29       1.05731      .   S
    Zr4    O29       1.94968      .   S
    N28    O30       1.45426      .   S
    Zr4    O30       1.66636      .   S
    N31    O32       1.05930  1_455   S
    Zr6    O32       1.95142      .   S
    N31    O33       1.45604      .   S
    Zr6    O33       1.66795  1_655   S
    N34    O35       1.06236      .   S
    Zr7    O35       1.95274      .   S
    N34    O36       2.23450      .   S
    Zr1    O36       3.17240      .   S
    N34    O37       1.45787      .   S
    Zr7    O37       1.67052      .   S
    N38    O39       0.79234      .   S
    Zr0    O39       1.26185      .   S
    N38    O40       1.05275      .   S
    Zr4    O40       1.93432  1_565   S
    N38    O41       2.23750  1_545   S
    Zr2    O41       3.17886  1_556   S
    N38    O42       1.44103      .   S
    Zr4    O42       1.65731  1_565   S
    N43    O44       1.06107      .   S
    Zr5    O44       1.95208      .   S
    N43    O45       1.92102  1_545   S
    Zr3    O45       2.10643      .   S
    N43    O46       1.45541      .   S
    Zr5    O46       1.67113      .   S
    N47    O48       1.05975      .   S
    Zr7    O48       1.95145      .   S
    N47    O49       2.23648      .   S
    Zr2    O49       3.17431      .   S
    N47    O50       1.45637      .   S
    Zr7    O50       1.66837      .   S
    N51    O52       1.06068  1_655   S
    Zr6    O52       1.95083  1_655   S
    N51    O53       1.45382      .   S
    Zr6    O53       1.67045      .   S
