# CIF file generated by openbabel 2.4.90, see http://openbabel.sf.net
data_I
_chemical_name_common ''
_cell_length_a 14.732
_cell_length_b 14.779
_cell_length_c 15.757
_cell_angle_alpha 117.881
_cell_angle_beta 97.495
_cell_angle_gamma 89.92
_space_group_name_H-M_alt 'P 1'
_space_group_name_Hall 'P 1'
loop_
    _symmetry_equiv_pos_as_xyz
    x,y,z
loop_
    _atom_site_label
    _atom_site_type_symbol
    _atom_site_fract_x
    _atom_site_fract_y
    _atom_site_fract_z
    _atom_site_occupancy
    N0      N    0.74387   0.94883   0.66062   1.000
    N1      N    0.24425   0.94865   0.66047   1.000
    N2      N    0.00577   0.28843   0.33942   1.000
    N3      N    0.50614   0.28846   0.33936   1.000
    N4      N    0.26015   0.05103   0.34171   1.000
    N5      N    0.75598   0.05137   0.33912   1.000
    N6      N    0.49420   0.71181   0.66056   1.000
    N7      N    0.99388   0.71152   0.66038   1.000
    Zr8     Zr   0.25043   0.99987   0.50010   1.000
    O9      O    0.24925   0.96828   0.53206   1.000
    O10     O    0.25504   0.98805   0.55636   1.000
    O11     O    0.25277   0.03147   0.46861   1.000
    O12     O    0.24663   0.01168   0.44436   1.000
    Zr13    Zr   0.13842   0.05746   0.29234   1.000
    O14     O    0.17259   0.05770   0.31385   1.000
    Zr15    Zr   0.99963   0.49990   0.49991   1.000
    O16     O    0.99831   0.56351   0.53190   1.000
    O17     O    0.00442   0.56789   0.55617   1.000
    O18     O    0.00078   0.43636   0.46793   1.000
    O19     O    0.99499   0.43190   0.44361   1.000
    Zr20    Zr   0.33178   0.98667   0.97302   1.000
    O21     O    0.32110   0.98301   0.08537   1.000
    O22     O    0.38671   0.88474   0.88814   1.000
    Zr23    Zr   0.49988   0.50023   0.50003   1.000
    O24     O    0.50106   0.43660   0.46801   1.000
    O25     O    0.49524   0.43218   0.44371   1.000
    O26     O    0.50467   0.56824   0.55632   1.000
    O27     O    0.49889   0.56379   0.53202   1.000
    Zr28    Zr   0.87507   0.94247   0.10000   1.000
    O29     O    0.84174   0.96100   0.16075   1.000
    Zr30    Zr   0.75044   0.00019   0.50000   1.000
    O31     O    0.74560   0.01199   0.44363   1.000
    O32     O    0.75164   0.03181   0.46789   1.000
    O33     O    0.75494   0.98832   0.55631   1.000
    O34     O    0.74914   0.96853   0.53203   1.000
    Zr35    Zr   0.66797   0.01364   0.02680   1.000
    O36     O    0.61319   0.11556   0.11172   1.000
    O37     O    0.67969   0.01719   0.91509   1.000
    Zr38    Zr   0.04744   0.99640   0.10726   1.000
    Zr39    Zr   0.95242   0.00425   0.89301   1.000
loop_
    _geom_bond_atom_site_label_1
    _geom_bond_atom_site_label_2
    _geom_bond_distance
    _geom_bond_site_symmetry_2
    _ccdc_geom_bond_type
    Zr8    O9        0.83318      .   S
    N1     O9        2.18433      .   S
    Zr8    O10       0.97484      .   S
    N1     O10       2.00417      .   S
    Zr8    O11       0.82866  1_565   S
    N4     O11       2.16596      .   S
    Zr8    O12       0.96716  1_565   S
    N4     O12       1.98960      .   S
    Zr13   O14       0.56812      .   S
    N4     O14       1.32616      .   S
    Zr15   O16       0.83523      .   S
    N7     O16       2.18624      .   S
    Zr15   O17       0.97541  1_655   S
    N7     O17       2.00787  1_655   S
    Zr15   O18       0.83397  1_655   S
    N2     O18       2.18704      .   S
    Zr15   O19       0.97571      .   S
    N2     O19       2.00691  1_455   S
    Zr20   O21       1.82319  1_556   S
    N4     O21       3.90864  1_545   S
    Zr20   O22       1.76284      .   S
    N6     O22       3.84669      .   S
    Zr23   O24       0.83526      .   S
    N3     O24       2.19003      .   S
    Zr23   O25       0.97637      .   S
    N3     O25       2.01052      .   S
    Zr23   O26       0.97572      .   S
    N6     O26       2.00739      .   S
    Zr23   O27       0.83419      .   S
    N6     O27       2.18741      .   S
    Zr28   O29       1.05321      .   S
    N5     O29       2.94804  1_545   S
    Zr30   O31       0.97604      .   S
    N5     O31       2.00912      .   S
    Zr30   O32       0.83556      .   S
    N5     O32       2.18797      .   S
    Zr30   O33       0.97605  1_545   S
    N0     O33       2.00886      .   S
    Zr30   O34       0.83509  1_545   S
    N0     O34       2.18834      .   S
    Zr35   O36       1.76188      .   S
    N3     O36       3.84375      .   S
    Zr35   O37       1.81560  1_554   S
    N0     O37       3.89744  1_565   S
