# CIF file generated by openbabel 2.4.90, see http://openbabel.sf.net
data_I
_chemical_name_common ''
_cell_length_a 20.521
_cell_length_b 16.616
_cell_length_c 19.798
_cell_angle_alpha 89.965
_cell_angle_beta 101.651
_cell_angle_gamma 90.041
_space_group_name_H-M_alt 'P 1'
_space_group_name_Hall 'P 1'
loop_
    _symmetry_equiv_pos_as_xyz
    x,y,z
loop_
    _atom_site_label
    _atom_site_type_symbol
    _atom_site_fract_x
    _atom_site_fract_y
    _atom_site_fract_z
    _atom_site_occupancy
    Zn0     Zn   0.75862   0.34011   0.37988   1.000
    Zn1     Zn   0.36370   0.41981   0.48070   1.000
    Zn2     Zn   0.86370   0.41981   0.48070   1.000
    Zn3     Zn   0.24135   0.84001   0.62002   1.000
    Zn4     Zn   0.74135   0.84002   0.62005   1.000
    Zn5     Zn   0.13635   0.91970   0.51912   1.000
    Zn6     Zn   0.63635   0.91971   0.51915   1.000
    Zn7     Zn   0.25862   0.34010   0.37986   1.000
