# CIF file generated by openbabel 2.4.90, see http://openbabel.sf.net
data_I
_chemical_name_common ''
_cell_length_a 20.521
_cell_length_b 16.616
_cell_length_c 19.798
_cell_angle_alpha 89.965
_cell_angle_beta 101.651
_cell_angle_gamma 90.041
_space_group_name_H-M_alt 'P 1'
_space_group_name_Hall 'P 1'
loop_
    _symmetry_equiv_pos_as_xyz
    x,y,z
loop_
    _atom_site_label
    _atom_site_type_symbol
    _atom_site_fract_x
    _atom_site_fract_y
    _atom_site_fract_z
    _atom_site_occupancy
    Zr0     Zr   0.25862   0.34010   0.37986   1.000
    Zr1     Zr   0.75862   0.34011   0.37988   1.000
    Zr2     Zr   0.36370   0.41981   0.48070   1.000
    Zr3     Zr   0.86370   0.41981   0.48070   1.000
    Zr4     Zr   0.24135   0.84001   0.62002   1.000
    Zr5     Zr   0.74135   0.84002   0.62005   1.000
    Zr6     Zr   0.13635   0.91970   0.51912   1.000
    Zr7     Zr   0.63635   0.91971   0.51915   1.000
    N8      N    0.39700   0.23406   0.96436   1.000
    O9      O    0.39504   0.31744   0.20831   1.000
    O10     O    0.27731   0.10317   0.74348   1.000
    O11     O    0.31507   0.06797   0.79360   1.000
    O12     O    0.37645   0.30981   0.74105   1.000
    N13     N    0.10299   0.73406   0.03534   1.000
    O14     O    0.12359   0.80978   0.25872   1.000
    O15     O    0.18491   0.56804   0.20623   1.000
    O16     O    0.22275   0.60323   0.25631   1.000
    O17     O    0.10497   0.81741   0.79145   1.000
    N18     N    0.89700   0.23406   0.96436   1.000
    O19     O    0.87646   0.30981   0.74105   1.000
    O20     O    0.77731   0.10318   0.74349   1.000
    O21     O    0.89505   0.31745   0.20832   1.000
    O22     O    0.81508   0.06797   0.79361   1.000
    N23     N    0.60299   0.73406   0.03537   1.000
    O24     O    0.60497   0.81741   0.79149   1.000
    O25     O    0.62358   0.80978   0.25875   1.000
    O26     O    0.68490   0.56805   0.20625   1.000
    O27     O    0.72274   0.60323   0.25633   1.000
    O28     O    0.15855   0.77641   0.82065   1.000
    O29     O    0.44438   0.78541   0.83470   1.000
    O30     O    0.94438   0.78542   0.83470   1.000
    O31     O    0.65854   0.77642   0.82069   1.000
    O32     O    0.05560   0.28543   0.16509   1.000
    O33     O    0.34143   0.27656   0.17907   1.000
    O34     O    0.84143   0.27658   0.17907   1.000
    O35     O    0.55560   0.28543   0.16511   1.000
loop_
    _geom_bond_atom_site_label_1
    _geom_bond_atom_site_label_2
    _geom_bond_distance
    _geom_bond_site_symmetry_2
    _ccdc_geom_bond_type
    N8     O9        5.03345  1_556   S
    Zr2    O9        5.81394      .   S
    N8     O10       5.05477      .   S
    Zr6    O10       5.67494  1_565   S
    N8     O11       4.42496      .   S
    Zr4    O11       5.13357  1_565   S
    N8     O12       4.53302      .   S
    Zr2    O12       5.42415      .   S
    N13    O14       4.53540      .   S
    Zr6    O14       5.42668      .   S
    N13    O15       4.42487      .   S
    Zr0    O15       5.13248      .   S
    N13    O16       5.05540      .   S
    Zr2    O16       5.67424      .   S
    N13    O17       5.03043  1_554   S
    Zr6    O17       5.81062      .   S
    N18    O19       4.53299      .   S
    Zr3    O19       5.42423      .   S
    N18    O20       5.05464      .   S
    Zr7    O20       5.67464  1_565   S
    N18    O21       5.03349  1_556   S
    Zr3    O21       5.81391      .   S
    N18    O22       4.42483      .   S
    Zr5    O22       5.13330  1_565   S
    N23    O24       5.03033  1_554   S
    Zr7    O24       5.81068      .   S
    N23    O25       4.53553      .   S
    Zr7    O25       5.42674      .   S
    N23    O26       4.42477      .   S
    Zr1    O26       5.13235      .   S
    N23    O27       5.05533      .   S
    Zr3    O27       5.67391      .   S
    Zr4    O28       4.74341      .   S
    N13    O28       4.67050  1_554   S
    Zr4    O29       5.39398      .   S
    N23    O29       4.67784  1_554   S
    Zr5    O30       5.39367      .   S
    N13    O30       4.67749  1_454   S
    Zr5    O31       4.74355      .   S
    N23    O31       4.67031  1_554   S
    Zr0    O32       5.39495      .   S
    N18    O32       4.67879  1_656   S
    Zr0    O33       4.74771      .   S
    N8     O33       4.67258  1_556   S
    Zr1    O34       4.74802      .   S
    N18    O34       4.67264  1_556   S
    Zr1    O35       5.39500      .   S
    N8     O35       4.67907  1_556   S
