# CIF file generated by openbabel 2.4.90, see http://openbabel.sf.net
data_I
_chemical_name_common ''
_cell_length_a 9.8895
_cell_length_b 14.0466
_cell_length_c 14.0477
_cell_angle_alpha 82.8964
_cell_angle_beta 69.3924
_cell_angle_gamma 69.4098
_space_group_name_H-M_alt 'P 1'
_space_group_name_Hall 'P 1'
loop_
    _symmetry_equiv_pos_as_xyz
    x,y,z
loop_
    _atom_site_label
    _atom_site_type_symbol
    _atom_site_fract_x
    _atom_site_fract_y
    _atom_site_fract_z
    _atom_site_occupancy
    C0      C    0.36044   0.00002   0.77975   1.000
    C1      C    0.14000   0.00007   0.22015   1.000
    C2      C    0.64021   0.22016   0.00007   1.000
    C3      C    0.86052   0.77977   0.00000   1.000
