# CIF file generated by openbabel 2.4.90, see http://openbabel.sf.net
data_I
_chemical_name_common 'VESTA_phase_1'
_cell_length_a 19.145
_cell_length_b 19.199
_cell_length_c 17.42
_cell_angle_alpha 95.567
_cell_angle_beta 105.607
_cell_angle_gamma 90.234
_space_group_name_H-M_alt 'P 1'
_space_group_name_Hall 'P 1'
loop_
    _symmetry_equiv_pos_as_xyz
    x,y,z
loop_
    _atom_site_label
    _atom_site_type_symbol
    _atom_site_fract_x
    _atom_site_fract_y
    _atom_site_fract_z
    _atom_site_occupancy
    Zn0     Zn   0.39041   0.38559   0.16958   1.000
    Zn1     Zn   0.39030   0.88745   0.17220   1.000
    Zn2     Zn   0.88878   0.38451   0.16725   1.000
    Zn3     Zn   0.89008   0.88543   0.16788   1.000
    Zn4     Zn   0.48688   0.27519   0.34049   1.000
    Zn5     Zn   0.48815   0.77513   0.34060   1.000
    Zn6     Zn   0.98454   0.27507   0.34013   1.000
    Zn7     Zn   0.98651   0.77549   0.33970   1.000
    Zn8     Zn   0.30442   0.36686   0.82733   1.000
    Zn9     Zn   0.30458   0.86697   0.82938   1.000
    Zn10    Zn   0.80421   0.36601   0.82616   1.000
    Zn11    Zn   0.80428   0.86414   0.82614   1.000
    Zn12    Zn   0.31440   0.47568   0.65410   1.000
    Zn13    Zn   0.31666   0.97741   0.65707   1.000
    Zn14    Zn   0.81690   0.47621   0.65403   1.000
    Zn15    Zn   0.81842   0.97539   0.65637   1.000
    Zn16    Zn   0.11019   0.11616   0.82725   1.000
    Zn17    Zn   0.10978   0.61636   0.82688   1.000
    Zn18    Zn   0.61096   0.11428   0.82570   1.000
    Zn19    Zn   0.60877   0.61406   0.82390   1.000
    Zn20    Zn   0.01276   0.22722   0.65672   1.000
    Zn21    Zn   0.01432   0.72723   0.65640   1.000
    Zn22    Zn   0.51233   0.22758   0.65670   1.000
    Zn23    Zn   0.51093   0.72736   0.65656   1.000
    Zn24    Zn   0.19472   0.13591   0.16982   1.000
    Zn25    Zn   0.19609   0.63577   0.16947   1.000
    Zn26    Zn   0.69446   0.13370   0.16716   1.000
    Zn27    Zn   0.69533   0.63452   0.16679   1.000
    Zn28    Zn   0.18396   0.02732   0.34314   1.000
    Zn29    Zn   0.18279   0.52539   0.34000   1.000
    Zn30    Zn   0.68603   0.02586   0.34200   1.000
    Zn31    Zn   0.68497   0.52544   0.34004   1.000
    H32     H    0.25918   0.31824   0.05972   1.000
    H33     H    0.25341   0.82366   0.06459   1.000
    H34     H    0.75851   0.31678   0.05718   1.000
    H35     H    0.75931   0.81722   0.05743   1.000
    H36     H    0.21840   0.23603   0.05000   1.000
    H37     H    0.19592   0.75409   0.06910   1.000
    H38     H    0.71886   0.23385   0.04683   1.000
    H39     H    0.71990   0.73423   0.04721   1.000
    H40     H    0.06736   0.03182   0.17786   1.000
    H41     H    0.06368   0.53368   0.18048   1.000
    H42     H    0.56875   0.02977   0.17695   1.000
    H43     H    0.56930   0.52744   0.17474   1.000
    H44     H    0.49732   0.47318   0.12160   1.000
    H45     H    0.49619   0.97610   0.12391   1.000
    H46     H    0.99346   0.47846   0.12410   1.000
    H47     H    0.99560   0.97807   0.12348   1.000
    H48     H    0.34693   0.17189   0.30520   1.000
    H49     H    0.35043   0.66935   0.30239   1.000
    H50     H    0.84511   0.17125   0.30365   1.000
    H51     H    0.84696   0.67130   0.30348   1.000
    H52     H    0.11608   0.39120   0.40062   1.000
    H53     H    0.11664   0.89289   0.40145   1.000
    H54     H    0.61737   0.39312   0.40225   1.000
    H55     H    0.61881   0.89253   0.40226   1.000
    H56     H    0.22685   0.43571   0.93800   1.000
    H57     H    0.21842   0.93172   0.93533   1.000
    H58     H    0.71748   0.43036   0.93173   1.000
    H59     H    0.71783   0.92948   0.93246   1.000
    H60     H    0.18570   0.51482   0.94389   1.000
    H61     H    0.15396   0.99714   0.92566   1.000
    H62     H    0.65253   0.49521   0.92177   1.000
    H63     H    0.65276   0.99435   0.92213   1.000
    H64     H    0.48853   0.23463   0.82705   1.000
    H65     H    0.48595   0.73192   0.82700   1.000
    H66     H    0.98846   0.23389   0.82679   1.000
    H67     H    0.98989   0.73253   0.82878   1.000
    H68     H    0.44011   0.28787   0.87981   1.000
    H69     H    0.43887   0.78582   0.88068   1.000
    H70     H    0.93996   0.28722   0.87948   1.000
    H71     H    0.93978   0.78478   0.88016   1.000
    H72     H    0.20007   0.08181   0.69545   1.000
    H73     H    0.19521   0.57898   0.69110   1.000
    H74     H    0.70164   0.08023   0.69393   1.000
    H75     H    0.69939   0.58036   0.69215   1.000
    H76     H    0.40870   0.35446   0.58975   1.000
    H77     H    0.40922   0.85546   0.59202   1.000
    H78     H    0.90967   0.35423   0.58960   1.000
    H79     H    0.91276   0.85482   0.59210   1.000
    H80     H    0.24862   0.18145   0.93425   1.000
    H81     H    0.24686   0.67979   0.93468   1.000
    H82     H    0.74983   0.17952   0.93162   1.000
    H83     H    0.74827   0.67860   0.93069   1.000
    H84     H    0.30874   0.24684   0.92448   1.000
    H85     H    0.30525   0.74871   0.92944   1.000
    H86     H    0.81010   0.24453   0.92115   1.000
    H87     H    0.80885   0.74337   0.92010   1.000
    H88     H    0.43041   0.47282   0.82016   1.000
    H89     H    0.43234   0.97343   0.82065   1.000
    H90     H    0.93291   0.47099   0.81654   1.000
    H91     H    0.93246   0.97385   0.82159   1.000
    H92     H    0.00312   0.03058   0.87729   1.000
    H93     H    0.00221   0.52749   0.87306   1.000
    H94     H    0.50400   0.02923   0.87597   1.000
    H95     H    0.50178   0.52899   0.87528   1.000
    H96     H    0.14904   0.33275   0.69598   1.000
    H97     H    0.15259   0.83151   0.69380   1.000
    H98     H    0.64846   0.33218   0.69537   1.000
    H99     H    0.64811   0.83150   0.69417   1.000
    H100    H    0.38460   0.10872   0.59400   1.000
    H101    H    0.38232   0.60820   0.59322   1.000
    H102    H    0.88653   0.10655   0.59282   1.000
    H103    H    0.88524   0.60850   0.59187   1.000
    H104    H    0.27135   0.06840   0.06038   1.000
    H105    H    0.27401   0.56691   0.05897   1.000
    H106    H    0.77121   0.06681   0.05758   1.000
    H107    H    0.77137   0.56699   0.05673   1.000
    H108    H    0.30569   0.98588   0.05046   1.000
    H109    H    0.31419   0.48724   0.05259   1.000
    H110    H    0.80539   0.98407   0.04720   1.000
    H111    H    0.80535   0.48422   0.04633   1.000
    H112    H    0.01103   0.26903   0.16929   1.000
    H113    H    0.01124   0.76872   0.16670   1.000
    H114    H    0.51501   0.27159   0.17108   1.000
    H115    H    0.51703   0.77330   0.17232   1.000
    H116    H    0.06036   0.21675   0.11866   1.000
    H117    H    0.06169   0.71656   0.11602   1.000
    H118    H    0.56208   0.21827   0.11879   1.000
    H119    H    0.56354   0.71994   0.11941   1.000
    H120    H    0.30224   0.42151   0.30378   1.000
    H121    H    0.30599   0.92432   0.30812   1.000
    H122    H    0.80458   0.42119   0.30280   1.000
    H123    H    0.80650   0.92200   0.30488   1.000
    H124    H    0.08616   0.14665   0.40559   1.000
    H125    H    0.08726   0.64666   0.40360   1.000
    H126    H    0.58802   0.14564   0.40480   1.000
    H127    H    0.58868   0.64519   0.40429   1.000
    C128    C    0.28957   0.26149   0.15570   1.000
    C129    C    0.28728   0.76568   0.16061   1.000
    C130    C    0.78890   0.25995   0.15320   1.000
    C131    C    0.79019   0.76039   0.15346   1.000
    C132    C    0.33718   0.20833   0.25989   1.000
    C133    C    0.33924   0.70755   0.25900   1.000
    C134    C    0.83569   0.20745   0.25809   1.000
    C135    C    0.83732   0.70766   0.25800   1.000
    C136    C    0.03595   0.45407   0.23766   1.000
    C137    C    0.03798   0.95464   0.23729   1.000
    C138    C    0.53931   0.45234   0.23630   1.000
    C139    C    0.53951   0.95367   0.23789   1.000
    C140    C    0.08069   0.40434   0.34442   1.000
    C141    C    0.08170   0.90568   0.34485   1.000
    C142    C    0.58253   0.40522   0.34529   1.000
    C143    C    0.58353   0.90524   0.34580   1.000
    C144    C    0.47397   0.21862   0.48480   1.000
    C145    C    0.47383   0.71848   0.48461   1.000
    C146    C    0.97233   0.21836   0.48464   1.000
    C147    C    0.97457   0.71900   0.48436   1.000
    C148    C    0.20885   0.48997   0.84067   1.000
    C149    C    0.20425   0.98647   0.83770   1.000
    C150    C    0.70318   0.48484   0.83411   1.000
    C151    C    0.70412   0.98410   0.83500   1.000
    C152    C    0.20971   0.04412   0.73939   1.000
    C153    C    0.20707   0.54279   0.73671   1.000
    C154    C    0.71076   0.04231   0.73759   1.000
    C155    C    0.70899   0.54265   0.73605   1.000
    C156    C    0.42359   0.30494   0.76326   1.000
    C157    C    0.42298   0.80436   0.76456   1.000
    C158    C    0.92416   0.30475   0.76310   1.000
    C159    C    0.92553   0.80338   0.76437   1.000
    C160    C    0.40572   0.34555   0.64920   1.000
    C161    C    0.40598   0.84615   0.65134   1.000
    C162    C    0.90660   0.34535   0.64914   1.000
    C163    C    0.90901   0.84526   0.65117   1.000
    C164    C    0.23242   0.03552   0.51437   1.000
    C165    C    0.23116   0.53368   0.51126   1.000
    C166    C    0.73459   0.03361   0.51309   1.000
    C167    C    0.73320   0.53341   0.51132   1.000
    C168    C    0.21483   0.23667   0.83710   1.000
    C169    C    0.21399   0.73690   0.83777   1.000
    C170    C    0.71543   0.23492   0.83496   1.000
    C171    C    0.71423   0.73401   0.83387   1.000
    C172    C    0.16085   0.29487   0.73968   1.000
    C173    C    0.16318   0.79389   0.73789   1.000
    C174    C    0.66070   0.29390   0.73859   1.000
    C175    C    0.66007   0.79318   0.73736   1.000
    C176    C    0.46118   0.05094   0.76131   1.000
    C177    C    0.45881   0.55042   0.76052   1.000
    C178    C    0.96138   0.05113   0.76197   1.000
    C179    C    0.96181   0.54916   0.75817   1.000
    C180    C    0.41882   0.09724   0.65155   1.000
    C181    C    0.41651   0.59674   0.65079   1.000
    C182    C    0.92007   0.09592   0.65104   1.000
    C183    C    0.91943   0.59649   0.64920   1.000
    C184    C    0.02573   0.28236   0.51202   1.000
    C185    C    0.02696   0.78375   0.51170   1.000
    C186    C    0.52592   0.28366   0.51249   1.000
    C187    C    0.52529   0.78384   0.51262   1.000
    C188    C    0.28860   0.01234   0.15703   1.000
    C189    C    0.29065   0.51181   0.15561   1.000
    C190    C    0.78841   0.01042   0.15399   1.000
    C191    C    0.78804   0.51031   0.15200   1.000
    C192    C    0.29105   0.45809   0.25860   1.000
    C193    C    0.29327   0.96035   0.26239   1.000
    C194    C    0.79214   0.45756   0.25749   1.000
    C195    C    0.79356   0.95812   0.25926   1.000
    C196    C    0.07622   0.19962   0.23476   1.000
    C197    C    0.07564   0.69838   0.23176   1.000
    C198    C    0.57840   0.19982   0.23467   1.000
    C199    C    0.57984   0.70078   0.23498   1.000
    C200    C    0.09104   0.15691   0.34715   1.000
    C201    C    0.09143   0.65628   0.34474   1.000
    C202    C    0.59284   0.15612   0.34643   1.000
    C203    C    0.59367   0.65610   0.34610   1.000
    C204    C    0.26598   0.46682   0.48284   1.000
    C205    C    0.26673   0.96835   0.48586   1.000
    C206    C    0.76833   0.46678   0.48279   1.000
    C207    C    0.76945   0.96676   0.48471   1.000
    C208    C    0.36012   0.37229   0.00000   1.000
    C209    C    0.35733   0.87353   0.00000   1.000
    C210    C    0.85802   0.37171   0.99771   1.000
    C211    C    0.85809   0.87096   0.99795   1.000
    C212    C    0.14187   0.12244   0.00000   1.000
    C213    C    0.14171   0.63068   0.99633   1.000
    C214    C    0.64196   0.12013   0.99765   1.000
    C215    C    0.64192   0.62114   0.99725   1.000
    N216    N    0.35286   0.29529   0.19424   1.000
    N217    N    0.35236   0.79732   0.19636   1.000
    N218    N    0.85173   0.29423   0.19239   1.000
    N219    N    0.85297   0.79478   0.19264   1.000
    N220    N    0.38304   0.26097   0.26208   1.000
    N221    N    0.38539   0.75960   0.26044   1.000
    N222    N    0.88132   0.26041   0.26076   1.000
    N223    N    0.88281   0.76076   0.26080   1.000
    N224    N    0.27799   0.20641   0.19551   1.000
    N225    N    0.27740   0.70867   0.19829   1.000
    N226    N    0.77717   0.20490   0.19294   1.000
    N227    N    0.77866   0.70516   0.19307   1.000
    N228    N    0.24178   0.27945   0.08793   1.000
    N229    N    0.23694   0.78894   0.09828   1.000
    N230    N    0.74152   0.27748   0.08488   1.000
    N231    N    0.74260   0.77783   0.08522   1.000
    N232    N    0.49220   0.40070   0.23818   1.000
    N233    N    0.49245   0.90188   0.23953   1.000
    N234    N    0.98945   0.40161   0.23837   1.000
    N235    N    0.99135   0.90217   0.23782   1.000
    N236    N    0.01889   0.36959   0.30771   1.000
    N237    N    0.02016   0.87066   0.30770   1.000
    N238    N    0.52073   0.37036   0.30891   1.000
    N239    N    0.52150   0.87072   0.30960   1.000
    N240    N    0.09412   0.45752   0.30343   1.000
    N241    N    0.09555   0.95865   0.30378   1.000
    N242    N    0.59680   0.45697   0.30284   1.000
    N243    N    0.59750   0.95755   0.30392   1.000
    N244    N    0.02300   0.49904   0.17961   1.000
    N245    N    0.02567   0.99902   0.17862   1.000
    N246    N    0.52742   0.49527   0.17628   1.000
    N247    N    0.52709   0.99733   0.17859   1.000
    N248    N    0.25401   0.45622   0.80334   1.000
    N249    N    0.25357   0.95561   0.80419   1.000
    N250    N    0.75301   0.45438   0.80111   1.000
    N251    N    0.75368   0.95323   0.80193   1.000
    N252    N    0.25179   0.49038   0.73534   1.000
    N253    N    0.25605   0.99302   0.73987   1.000
    N254    N    0.75578   0.49190   0.73694   1.000
    N255    N    0.75694   0.99104   0.73817   1.000
    N256    N    0.17615   0.04272   0.79880   1.000
    N257    N    0.17865   0.54483   0.80046   1.000
    N258    N    0.67661   0.04070   0.79649   1.000
    N259    N    0.67489   0.54090   0.79500   1.000
    N260    N    0.19266   0.47156   0.90745   1.000
    N261    N    0.18276   0.96277   0.89881   1.000
    N262    N    0.68143   0.46088   0.89495   1.000
    N263    N    0.68193   0.96009   0.89560   1.000
    N264    N    0.37513   0.35607   0.76117   1.000
    N265    N    0.37556   0.85634   0.76330   1.000
    N266    N    0.87592   0.35612   0.76101   1.000
    N267    N    0.87705   0.85458   0.76228   1.000
    N268    N    0.36374   0.38170   0.68670   1.000
    N269    N    0.36469   0.88270   0.68936   1.000
    N270    N    0.86470   0.38168   0.68655   1.000
    N271    N    0.86659   0.88099   0.68830   1.000
    N272    N    0.44412   0.29696   0.69398   1.000
    N273    N    0.44342   0.79658   0.69521   1.000
    N274    N    0.94475   0.29667   0.69386   1.000
    N275    N    0.94685   0.79618   0.69550   1.000
    N276    N    0.44532   0.26551   0.82582   1.000
    N277    N    0.44375   0.76400   0.82641   1.000
    N278    N    0.94560   0.26521   0.82555   1.000
    N279    N    0.94651   0.76340   0.82647   1.000
    N280    N    0.14881   0.20577   0.80393   1.000
    N281    N    0.14886   0.70538   0.80189   1.000
    N282    N    0.64924   0.20420   0.80226   1.000
    N283    N    0.64786   0.70368   0.80101   1.000
    N284    N    0.11455   0.24356   0.74014   1.000
    N285    N    0.11667   0.74229   0.73679   1.000
    N286    N    0.61444   0.24260   0.73919   1.000
    N287    N    0.61347   0.74213   0.73788   1.000
    N288    N    0.22385   0.29331   0.79867   1.000
    N289    N    0.22450   0.79315   0.79930   1.000
    N290    N    0.72414   0.29183   0.79674   1.000
    N291    N    0.72337   0.79081   0.79564   1.000
    N292    N    0.26644   0.21258   0.89760   1.000
    N293    N    0.26377   0.71416   0.90081   1.000
    N294    N    0.76748   0.21047   0.89474   1.000
    N295    N    0.76603   0.70948   0.89375   1.000
    N296    N    0.00745   0.10418   0.76121   1.000
    N297    N    0.00845   0.60154   0.75754   1.000
    N298    N    0.50772   0.10352   0.76030   1.000
    N299    N    0.50531   0.60309   0.75960   1.000
    N300    N    0.47977   0.13301   0.68880   1.000
    N301    N    0.47739   0.63261   0.68810   1.000
    N302    N    0.98028   0.13263   0.68889   1.000
    N303    N    0.98057   0.63194   0.68680   1.000
    N304    N    0.40456   0.04548   0.69388   1.000
    N305    N    0.40221   0.54485   0.69302   1.000
    N306    N    0.90568   0.04445   0.69368   1.000
    N307    N    0.90507   0.54428   0.69093   1.000
    N308    N    0.47278   0.00816   0.82116   1.000
    N309    N    0.47058   0.50779   0.82054   1.000
    N310    N    0.97264   0.00898   0.82240   1.000
    N311    N    0.97356   0.50573   0.81766   1.000
    N312    N    0.24490   0.04638   0.19589   1.000
    N313    N    0.24526   0.54549   0.19270   1.000
    N314    N    0.74524   0.04460   0.19348   1.000
    N315    N    0.74493   0.54466   0.19222   1.000
    N316    N    0.24880   0.01291   0.26451   1.000
    N317    N    0.24652   0.51070   0.26002   1.000
    N318    N    0.74949   0.01095   0.26208   1.000
    N319    N    0.74848   0.51067   0.26041   1.000
    N320    N    0.32022   0.45642   0.19540   1.000
    N321    N    0.32000   0.95781   0.19735   1.000
    N322    N    0.81859   0.45506   0.19227   1.000
    N323    N    0.81966   0.95555   0.19370   1.000
    N324    N    0.30230   0.02962   0.08836   1.000
    N325    N    0.30748   0.53050   0.08930   1.000
    N326    N    0.80193   0.02782   0.08530   1.000
    N327    N    0.80205   0.52792   0.08443   1.000
    N328    N    0.12579   0.14960   0.23791   1.000
    N329    N    0.12395   0.64696   0.23398   1.000
    N330    N    0.62690   0.14890   0.23677   1.000
    N331    N    0.62782   0.64949   0.23649   1.000
    N332    N    0.13501   0.12225   0.31104   1.000
    N333    N    0.13395   0.62035   0.30778   1.000
    N334    N    0.63594   0.12091   0.30950   1.000
    N335    N    0.63640   0.62083   0.30876   1.000
    N336    N    0.05318   0.20586   0.30251   1.000
    N337    N    0.05399   0.70566   0.30044   1.000
    N338    N    0.55574   0.20603   0.30267   1.000
    N339    N    0.55720   0.70664   0.30300   1.000
    N340    N    0.05567   0.23974   0.17241   1.000
    N341    N    0.05508   0.73837   0.16960   1.000
    N342    N    0.55853   0.24090   0.17310   1.000
    N343    N    0.56039   0.74246   0.17393   1.000
    O344    O    0.41404   0.37551   0.06471   1.000
    O345    O    0.41098   0.87778   0.06640   1.000
    O346    O    0.91143   0.37424   0.06272   1.000
    O347    O    0.91177   0.87422   0.06275   1.000
    O348    O    0.44987   0.20246   0.41009   1.000
    O349    O    0.45046   0.70213   0.40988   1.000
    O350    O    0.94701   0.20284   0.40997   1.000
    O351    O    0.94976   0.70294   0.40971   1.000
    O352    O    0.45974   0.18630   0.53921   1.000
    O353    O    0.45925   0.68614   0.53885   1.000
    O354    O    0.95833   0.18623   0.53930   1.000
    O355    O    0.96075   0.68671   0.53900   1.000
    O356    O    0.37443   0.35273   0.93159   1.000
    O357    O    0.37244   0.85266   0.93395   1.000
    O358    O    0.87265   0.35000   0.93009   1.000
    O359    O    0.87209   0.84766   0.93045   1.000
    O360    O    0.24680   0.05210   0.58915   1.000
    O361    O    0.24482   0.54991   0.58605   1.000
    O362    O    0.74836   0.04993   0.58783   1.000
    O363    O    0.74704   0.54973   0.58614   1.000
    O364    O    0.19274   0.06909   0.46050   1.000
    O365    O    0.19177   0.56736   0.45734   1.000
    O366    O    0.69501   0.06726   0.45917   1.000
    O367    O    0.69337   0.56688   0.45752   1.000
    O368    O    0.09399   0.10078   0.93240   1.000
    O369    O    0.08732   0.62580   0.93195   1.000
    O370    O    0.59447   0.09745   0.93014   1.000
    O371    O    0.59396   0.59912   0.92984   1.000
    O372    O    0.05173   0.29741   0.58674   1.000
    O373    O    0.05192   0.79964   0.58636   1.000
    O374    O    0.55036   0.29959   0.58725   1.000
    O375    O    0.54884   0.80006   0.58740   1.000
    O376    O    0.03922   0.31503   0.45750   1.000
    O377    O    0.04062   0.81614   0.45700   1.000
    O378    O    0.53979   0.31626   0.45810   1.000
    O379    O    0.53967   0.81636   0.45845   1.000
    O380    O    0.12024   0.12527   0.06511   1.000
    O381    O    0.12737   0.65011   0.06466   1.000
    O382    O    0.62033   0.12246   0.06269   1.000
    O383    O    0.62050   0.62423   0.06250   1.000
    O384    O    0.25194   0.45034   0.40809   1.000
    O385    O    0.25234   0.95173   0.41113   1.000
    O386    O    0.75432   0.45044   0.40804   1.000
    O387    O    0.75536   0.95020   0.40998   1.000
    O388    O    0.30575   0.43340   0.53678   1.000
    O389    O    0.30654   0.93486   0.53973   1.000
    O390    O    0.80826   0.43345   0.53670   1.000
    O391    O    0.80931   0.93346   0.53875   1.000
    O392    O    0.29552   0.38695   0.00320   1.000
    O393    O    0.29231   0.88837   0.00357   1.000
    O394    O    0.79361   0.38878   0.99965   1.000
    O395    O    0.79391   0.88882   0.00000   1.000
    O396    O    0.20757   0.13921   0.00246   1.000
    O397    O    0.20662   0.61750   0.99287   1.000
    O398    O    0.70722   0.13828   0.99980   1.000
    O399    O    0.70754   0.63801   0.99944   1.000
loop_
    _geom_bond_atom_site_label_1
    _geom_bond_atom_site_label_2
    _geom_bond_distance
    _geom_bond_site_symmetry_2
    _ccdc_geom_bond_type
    C212   O396      1.28558      .   S
    C212   O380      1.30452      .   S
    C212   O368      1.31185  1_554   S
    C209   O393      1.29457      .   S
    C209   O345      1.31959      .   S
    C209   O357      1.28789  1_554   S
    C208   O392      1.28401      .   S
    C208   O344      1.30391      .   S
    C208   O356      1.31375  1_554   S
    O395   C211      1.28579  1_554   S
    H111   N327      1.03135      .   S
    H38    N230      1.03131      .   S
    H110   N326      1.03263  1_565   S
    H39    N231      1.03088      .   S
    H36    N228      1.03099      .   S
    H108   N324      1.03022  1_565   S
    H109   N325      1.02816      .   S
    H107   N327      1.03029      .   S
    H34    N230      1.03002      .   S
    H35    N231      1.03002      .   S
    H106   N326      1.02979      .   S
    H105   N325      1.03525      .   S
    H32    N228      1.03146      .   S
    H104   N324      1.03037      .   S
    O383   Zn27      1.97970      .   S
    O383   C215      1.30440  1_554   S
    O382   Zn26      1.97591      .   S
    O382   C214      1.30374  1_554   S
    O346   Zn2       1.97455      .   S
    O346   C210      1.30250  1_554   S
    O347   Zn3       1.97638      .   S
    O347   C211      1.30230  1_554   S
    H33    N229      1.03059      .   S
    O381   Zn25      1.98702      .   S
    O381   C213      1.31217  1_554   S
    O344   Zn0       1.98905      .   S
    O380   Zn24      1.98186      .   S
    O345   Zn1       1.97862      .   S
    H37    N229      1.01874      .   S
    N327   C191      1.34833      .   S
    N230   C130      1.36080      .   S
    N231   C131      1.36095      .   S
    N326   C190      1.36150      .   S
    N228   C128      1.36024      .   S
    N324   C188      1.36192      .   S
    N325   C189      1.35891      .   S
    N229   C129      1.35704      .   S
    H117   N341      1.02506      .   S
    H116   N340      1.02218      .   S
    H118   N342      1.02148      .   S
    H119   N343      1.02167      .   S
    H44    N246      1.02147      .   S
    H47    N245      1.02049  1_655   S
    H45    N247      1.02122      .   S
    H46    N244      1.02021  1_655   S
    C191   N315      1.35385      .   S
    C191   N322      1.37403      .   S
    C130   N218      1.34556      .   S
    C130   N226      1.36758      .   S
    C131   N219      1.34581      .   S
    C131   N227      1.36790      .   S
    C190   N314      1.34520      .   S
    C190   N323      1.36745  1_545   S
    C189   N313      1.34769      .   S
    C189   N320      1.36688      .   S
    C128   N216      1.34585      .   S
    C128   N224      1.36808      .   S
    C188   N312      1.34494      .   S
    C188   N321      1.36793  1_545   S
    C129   N217      1.34616      .   S
    C129   N225      1.36707      .   S
    H113   N341      1.01667      .   S
    Zn27   N315      2.00239      .   S
    Zn27   N227      2.01580      .   S
    Zn27   N331      2.00175      .   S
    Zn26   N226      2.01457      .   S
    Zn26   N314      2.00206      .   S
    Zn26   N330      2.00173      .   S
    Zn2    N322      2.01143      .   S
    Zn2    N218      2.00098      .   S
    Zn2    N234      1.99708      .   S
    Zn3    N219      2.00494      .   S
    Zn3    N323      2.01410      .   S
    Zn3    N235      1.99859      .   S
    H112   N340      1.01720      .   S
    Zn25   N313      1.99968      .   S
    Zn25   N225      2.01486      .   S
    Zn25   N329      2.00188      .   S
    Zn0    N216      2.00197      .   S
    Zn0    N320      2.01961      .   S
    Zn0    N232      1.99619      .   S
    N341   C197      1.36075      .   S
    Zn24   N224      2.01370      .   S
    Zn24   N312      2.00340      .   S
    Zn24   N328      2.00057      .   S
    H114   N342      1.01745      .   S
    Zn1    N217      1.99870      .   S
    Zn1    N321      2.01136      .   S
    Zn1    N233      1.99394      .   S
    H115   N343      1.01751      .   S
    N340   C196      1.36469      .   S
    N342   C198      1.36528      .   S
    N343   C199      1.36544      .   S
    H43    N246      1.01777      .   S
    N246   C138      1.36559      .   S
    H42    N247      1.01809  1_545   S
    H40    N245      1.01843  1_545   S
    N247   C139      1.36522      .   S
    N245   C137      1.36641      .   S
    N244   H41       1.01818      .   S
    N244   C136      1.36594      .   S
    N315   N319      1.39597      .   S
    N322   C194      1.35958      .   S
    N218   N222      1.39675      .   S
    N219   N223      1.39692      .   S
    N313   N317      1.39960      .   S
    N226   C134      1.36015      .   S
    N227   C135      1.35962      .   S
    N314   N318      1.39639      .   S
    N323   C195      1.36112      .   S
    N216   N220      1.39687      .   S
    N320   C192      1.35984      .   S
    N224   C132      1.36048      .   S
    N312   N316      1.39600      .   S
    N217   N221      1.39676      .   S
    N321   C193      1.35988      .   S
    N225   C133      1.36071      .   S
    C197   N329      1.35161      .   S
    C197   N337      1.36296      .   S
    N329   N333      1.39507      .   S
    C198   N330      1.34742      .   S
    C198   N338      1.36203      .   S
    C196   N328      1.34749      .   S
    C196   N336      1.36188      .   S
    C199   N331      1.34673      .   S
    C199   N339      1.36209      .   S
    C138   N232      1.34617      .   S
    C138   N242      1.36224      .   S
    N331   N335      1.39226      .   S
    N330   N334      1.39240      .   S
    C137   N235      1.34567  1_455   S
    C137   N241      1.36283      .   S
    C136   N234      1.34477  1_455   S
    C136   N240      1.36211      .   S
    N235   N237      1.39158  1_655   S
    C139   N233      1.34650      .   S
    C139   N243      1.36260      .   S
    N328   N332      1.39259      .   S
    N232   N238      1.39122      .   S
    N234   N236      1.39104  1_655   S
    N233   N239      1.39152      .   S
    C194   N319      1.32695      .   S
    C194   H122      1.08375      .   S
    C135   N223      1.32692      .   S
    C135   H51       1.08572      .   S
    C134   N222      1.32702      .   S
    C134   H50       1.08465      .   S
    C192   N317      1.32700      .   S
    C192   H120      1.08462      .   S
    C133   N221      1.32512      .   S
    C133   H49       1.08476      .   S
    C195   N318      1.32754  1_565   S
    C195   H123      1.08460      .   S
    C132   N220      1.32718      .   S
    C132   H48       1.08452      .   S
    N317   Zn29      2.08578      .   S
    N319   Zn31      2.07778      .   S
    N221   Zn5       2.08464      .   S
    N222   Zn6       2.08465      .   S
    N223   Zn7       2.08862      .   S
    N318   Zn30      2.08128      .   S
    N220   Zn4       2.08668      .   S
    C193   N316      1.32722  1_565   S
    C193   H121      1.08448      .   S
    N316   Zn28      2.08265      .   S
    N337   Zn7       2.06043  1_455   S
    N337   C201      1.36310      .   S
    N336   Zn6       2.05678  1_455   S
    N336   C200      1.36297      .   S
    N338   Zn4       2.06082      .   S
    N338   C202      1.36367      .   S
    N242   Zn31      2.05566      .   S
    N242   C142      1.36294      .   S
    N339   Zn5       2.05390      .   S
    N339   C203      1.36290      .   S
    N240   Zn29      2.05535      .   S
    N240   C140      1.36257      .   S
    N241   Zn28      2.06284  1_565   S
    N241   C141      1.36287      .   S
    N243   Zn30      2.05938  1_565   S
    N243   C143      1.36281      .   S
    N237   Zn7       2.10842  1_455   S
    N237   C141      1.32575      .   S
    N236   Zn6       2.10572  1_455   S
    N236   C140      1.32573      .   S
    N333   Zn29      2.10791      .   S
    N333   C201      1.32427      .   S
    N335   Zn31      2.10963      .   S
    N335   C203      1.32522      .   S
    N238   Zn4       2.10679      .   S
    N238   C142      1.32558      .   S
    N334   Zn30      2.11971      .   S
    N334   C202      1.32562      .   S
    N239   Zn5       2.10615      .   S
    N239   C143      1.32540      .   S
    N332   Zn28      2.10768      .   S
    N332   C200      1.32491      .   S
    Zn7    O351      2.16922      .   S
    Zn7    O377      2.09821  1_655   S
    Zn29   O384      2.17665      .   S
    Zn29   O365      2.08504      .   S
    Zn31   O386      2.17715      .   S
    Zn31   O367      2.08636      .   S
    Zn6    O350      2.17002      .   S
    Zn6    O376      2.09816  1_655   S
    Zn4    O348      2.16889      .   S
    Zn4    O378      2.09965      .   S
    Zn5    O349      2.17479      .   S
    Zn5    O379      2.09834      .   S
    Zn30   O387      2.18576  1_545   S
    Zn30   O366      2.07917      .   S
    Zn28   O385      2.17660  1_545   S
    Zn28   O364      2.08496      .   S
    C140   H52       1.08328      .   S
    C201   H125      1.08286      .   S
    C141   H53       1.08317      .   S
    C142   H54       1.08316      .   S
    C143   H55       1.08328      .   S
    C203   H127      1.08331      .   S
    C202   H126      1.08307      .   S
    C200   H124      1.08348      .   S
    O386   C206      1.26416      .   S
    O384   C204      1.26452      .   S
    O351   C147      1.26505      .   S
    O349   C145      1.26475      .   S
    O350   C146      1.26495      .   S
    O387   C207      1.26433      .   S
    O348   C144      1.26500      .   S
    O385   C205      1.26418      .   S
    O377   C185      1.26916      .   S
    O365   C165      1.26882      .   S
    O376   C184      1.26823      .   S
    O367   C167      1.26849      .   S
    O378   C186      1.26836      .   S
    O379   C187      1.26848      .   S
    O366   C166      1.26991      .   S
    O364   C164      1.26928      .   S
    C206   C167      1.54892      .   S
    C206   O390      1.26894      .   S
    C204   C165      1.54864      .   S
    C204   O388      1.26902      .   S
    C147   C185      1.54789  1_655   S
    C147   O355      1.26845      .   S
    C145   C187      1.54766      .   S
    C145   O353      1.26913      .   S
    C146   C184      1.54787  1_655   S
    C146   O354      1.26845      .   S
    C207   C166      1.54881  1_565   S
    C207   O391      1.26940      .   S
    C144   C186      1.54801      .   S
    C144   O352      1.26858      .   S
    C205   C164      1.54893  1_565   S
    C205   O389      1.26928      .   S
    C165   O361      1.26496      .   S
    C167   O363      1.26549      .   S
    C185   O373      1.26504      .   S
    C184   O372      1.26600      .   S
    C186   O374      1.26576      .   S
    C187   O375      1.26544      .   S
    C166   O362      1.26423      .   S
    C164   O360      1.26488      .   S
    O390   Zn14      2.09050      .   S
    O388   Zn12      2.08760      .   S
    O391   Zn15      2.08882      .   S
    O353   Zn23      2.09690      .   S
    O355   Zn21      2.09659  1_655   S
    O352   Zn22      2.09782      .   S
    O354   Zn20      2.10315  1_655   S
    O389   Zn13      2.08438      .   S
    O361   Zn12      2.16890      .   S
    O363   Zn14      2.16069      .   S
    O373   Zn21      2.17548      .   S
    O372   Zn20      2.15837      .   S
    O374   Zn22      2.16682      .   S
    O375   Zn23      2.17131      .   S
    O362   Zn15      2.18133  1_545   S
    O360   Zn13      2.17672  1_545   S
    H78    C162      1.08415      .   S
    H76    C160      1.08223      .   S
    H103   C183      1.08313      .   S
    H77    C161      1.08343      .   S
    H79    C163      1.08350      .   S
    H102   C182      1.08324      .   S
    H101   C181      1.08324      .   S
    H100   C180      1.08321      .   S
    C162   N270      1.32377      .   S
    C162   N274      1.36174      .   S
    C183   N303      1.32536      .   S
    C183   N307      1.36222      .   S
    C160   N268      1.32424      .   S
    C160   N272      1.36284      .   S
    C181   N301      1.32444      .   S
    C181   N305      1.36266      .   S
    C182   N302      1.32460      .   S
    C182   N306      1.36173      .   S
    C163   N271      1.32277      .   S
    C163   N275      1.36190      .   S
    C161   N269      1.32370      .   S
    C161   N273      1.36212      .   S
    C180   N300      1.32435      .   S
    C180   N304      1.36166      .   S
    Zn14   N270      2.09425      .   S
    Zn14   N307      2.05070      .   S
    Zn14   N254      2.09146      .   S
    Zn12   N268      2.09636      .   S
    Zn12   N305      2.05977      .   S
    Zn12   N252      2.08753      .   S
    Zn15   N271      2.09231      .   S
    Zn15   N306      2.04985  1_565   S
    Zn15   N255      2.08045      .   S
    Zn21   N303      2.09944  1_455   S
    Zn21   N275      2.04863  1_455   S
    Zn21   N285      2.07962      .   S
    Zn23   N301      2.09709      .   S
    Zn23   N273      2.04912      .   S
    Zn23   N287      2.08856      .   S
    Zn22   N300      2.09121      .   S
    Zn22   N272      2.05039      .   S
    Zn22   N286      2.09118      .   S
    Zn20   N302      2.09150  1_455   S
    Zn20   N274      2.04741  1_455   S
    Zn20   N284      2.09541      .   S
    Zn13   N269      2.09810      .   S
    Zn13   N304      2.04706  1_565   S
    Zn13   N253      2.08226      .   S
    N270   N266      1.39426      .   S
    N268   N264      1.39462      .   S
    N303   N297      1.39004  1_655   S
    N301   N299      1.39261      .   S
    N271   N267      1.39530      .   S
    N300   N298      1.39243      .   S
    N302   N296      1.39266  1_655   S
    N269   N265      1.39342      .   S
    N307   C179      1.36166      .   S
    H73    C153      1.08497      .   S
    H75    C155      1.08436      .   S
    N305   C177      1.36284      .   S
    N306   C178      1.36210      .   S
    H97    C173      1.08524      .   S
    N274   C158      1.36165      .   S
    N304   C176      1.36225      .   S
    H74    C154      1.08439      .   S
    N272   C156      1.36170      .   S
    H99    C175      1.08434      .   S
    N273   C157      1.36189      .   S
    H98    C174      1.08440      .   S
    H72    C152      1.08447      .   S
    N275   C159      1.36263      .   S
    H96    C172      1.08439      .   S
    N252   C153      1.32640      .   S
    N252   N248      1.39954      .   S
    C155   N254      1.32460      .   S
    C155   N259      1.35980      .   S
    C153   N257      1.35926      .   S
    N285   C173      1.32467      .   S
    N285   N281      1.39694      .   S
    N254   N250      1.39963      .   S
    C175   N287      1.32483      .   S
    C175   N291      1.35982      .   S
    C154   N255      1.32478  1_545   S
    C154   N258      1.35948      .   S
    N287   N283      1.39996      .   S
    C173   N289      1.36022      .   S
    N255   N251      1.39931      .   S
    C174   N286      1.32456      .   S
    C174   N290      1.35974      .   S
    N286   N282      1.40054      .   S
    C152   N253      1.32464  1_545   S
    C152   N256      1.35929      .   S
    C172   N284      1.32458      .   S
    C172   N288      1.36046      .   S
    N253   N249      1.39933      .   S
    N284   N280      1.39981      .   S
    N297   C179      1.34488  1_455   S
    N297   Zn17      1.99282      .   S
    C179   N311      1.36520      .   S
    N299   C177      1.34875      .   S
    N299   Zn19      1.99481      .   S
    N298   C176      1.34832      .   S
    N298   Zn18      1.99667      .   S
    C177   N309      1.36176      .   S
    N266   C158      1.35025      .   S
    N266   Zn10      2.00198      .   S
    N264   C156      1.34979      .   S
    N264   Zn8       1.99991      .   S
    N296   C178      1.34797  1_455   S
    N296   Zn16      1.99309      .   S
    C176   N308      1.36171      .   S
    C178   N310      1.36167      .   S
    N267   C159      1.35104      .   S
    N267   Zn11      2.00222      .   S
    C158   N278      1.36049      .   S
    C156   N276      1.36110      .   S
    N265   C157      1.34957      .   S
    N265   Zn9       2.00300      .   S
    C159   N279      1.36034      .   S
    C157   N277      1.36138      .   S
    N259   Zn19      2.01223      .   S
    N259   C150      1.36530      .   S
    N291   Zn11      2.01439      .   S
    N291   C171      1.36578      .   S
    N258   Zn18      2.01319      .   S
    N258   C151      1.36538  1_545   S
    N290   Zn10      2.01464      .   S
    N290   C170      1.36545      .   S
    N288   Zn8       2.01326      .   S
    N288   C168      1.36470      .   S
    N256   Zn16      2.01114      .   S
    N256   C149      1.36583  1_545   S
    N289   Zn9       2.00987      .   S
    N289   C169      1.36629      .   S
    N257   Zn17      2.01359      .   S
    N257   C148      1.36551      .   S
    N283   Zn19      1.99065      .   S
    N283   C171      1.34887      .   S
    N250   Zn10      1.98907      .   S
    N250   C150      1.34801      .   S
    N281   Zn17      1.99487      .   S
    N281   C169      1.34645      .   S
    N251   Zn11      1.99379      .   S
    N251   C151      1.34749      .   S
    N282   Zn18      1.99294      .   S
    N282   C170      1.34858      .   S
    N248   Zn8       1.99623      .   S
    N248   C148      1.34752      .   S
    N280   Zn16      1.98954      .   S
    N280   C168      1.34829      .   S
    N249   Zn9       1.99244      .   S
    N249   C149      1.34807      .   S
    H90    N311      1.01782      .   S
    N311   H93       1.02069  1_655   S
    H88    N309      1.01703      .   S
    N309   H95       1.02368      .   S
    H89    N308      1.01730  1_565   S
    N308   H94       1.02403      .   S
    H91    N310      1.01727  1_565   S
    N310   H92       1.02358  1_655   S
    Zn19   O371      1.98794      .   S
    N278   H66       1.01617      .   S
    N278   H70       1.02502      .   S
    Zn18   O370      1.98405      .   S
    N276   H64       1.01632      .   S
    N276   H68       1.02535      .   S
    Zn11   O359      1.98319      .   S
    Zn10   O358      1.98097      .   S
    N277   H65       1.01644      .   S
    N277   H69       1.02417      .   S
    N279   H67       1.01644      .   S
    N279   H71       1.02503      .   S
    Zn17   O369      1.98179      .   S
    Zn16   O368      1.98703      .   S
    Zn8    O356      1.98933      .   S
    Zn9    O357      1.97697      .   S
    C171   N295      1.35502      .   S
    C150   N262      1.35610      .   S
    C170   N294      1.35571      .   S
    C151   N263      1.35698      .   S
    C168   N292      1.35613      .   S
    C149   N261      1.35561      .   S
    C169   N293      1.35584      .   S
    C148   N260      1.35904      .   S
    N295   H87       1.02037      .   S
    N295   H83       1.03495      .   S
    N294   H86       1.02006      .   S
    N294   H82       1.03395      .   S
    N262   H62       1.02028      .   S
    N262   H58       1.03366      .   S
    N263   H63       1.02031      .   S
    N263   H59       1.03386      .   S
    N292   H84       1.01958      .   S
    N292   H80       1.03480      .   S
    N261   H61       1.01992      .   S
    N261   H57       1.03412      .   S
    N293   H85       1.01866      .   S
    N293   H81       1.03187      .   S
    N260   H56       1.03560      .   S
    N260   H60       1.02691      .   S
    O371   C215      1.31189      .   S
    O358   C210      1.31269      .   S
    O370   C214      1.31196      .   S
    O359   C211      1.31269      .   S
    O369   C213      1.30427      .   S
    O397   C213      1.28536      .   S
    C215   O399      1.28580      .   S
    C214   O398      1.28562      .   S
    C210   O394      1.28544      .   S
