# CIF file generated by openbabel 2.4.90, see http://openbabel.sf.net
data_I
_chemical_name_common ''
_cell_length_a 12.316
_cell_length_b 16.202
_cell_length_c 17.134
_cell_angle_alpha 89.853
_cell_angle_beta 89.941
_cell_angle_gamma 90.059
_space_group_name_H-M_alt 'P 1'
_space_group_name_Hall 'P 1'
loop_
    _symmetry_equiv_pos_as_xyz
    x,y,z
loop_
    _atom_site_label
    _atom_site_type_symbol
    _atom_site_fract_x
    _atom_site_fract_y
    _atom_site_fract_z
    _atom_site_occupancy
    C0      C    0.43877   0.19025   0.41225   1.000
    C1      C    0.43877   0.69026   0.41225   1.000
    C2      C    0.40444   0.42162   0.19235   1.000
    C3      C    0.40445   0.92163   0.19236   1.000
    C4      C    0.57417   0.37194   0.47140   1.000
    C5      C    0.57417   0.87194   0.47140   1.000
    C6      C    0.20987   0.43823   0.42244   1.000
    C7      C    0.20988   0.93824   0.42244   1.000
    C8      C    0.93832   0.31080   0.58820   1.000
    C9      C    0.93832   0.81081   0.58820   1.000
    C10     C    0.90378   0.07971   0.80740   1.000
    C11     C    0.90377   0.57972   0.80741   1.000
    C12     C    0.07398   0.12917   0.52876   1.000
    C13     C    0.07398   0.62918   0.52876   1.000
    C14     C    0.70924   0.06275   0.57810   1.000
    C15     C    0.70924   0.56275   0.57809   1.000
    C16     C    0.40434   0.32959   0.69259   1.000
    C17     C    0.40436   0.82959   0.69259   1.000
    C18     C    0.57305   0.37854   0.97138   1.000
    C19     C    0.57306   0.87855   0.97138   1.000
    C20     C    0.20863   0.31208   0.92282   1.000
    C21     C    0.20864   0.81209   0.92282   1.000
    C22     C    0.93720   0.43902   0.08755   1.000
    C23     C    0.93721   0.93903   0.08755   1.000
    C24     C    0.90412   0.17091   0.30793   1.000
    C25     C    0.90412   0.67091   0.30793   1.000
    C26     C    0.07284   0.12082   0.02851   1.000
    C27     C    0.07284   0.62083   0.02850   1.000
    C28     C    0.70834   0.18683   0.07783   1.000
    C29     C    0.70833   0.68684   0.07784   1.000
    S30     S    0.52009   0.14859   0.34695   1.000
    S31     S    0.52009   0.64859   0.34694   1.000
    S32     S    0.48322   0.43980   0.49879   1.000
    S33     S    0.48323   0.93980   0.49880   1.000
    S34     S    0.22638   0.51464   0.36058   1.000
    S35     S    0.22639   0.00000   0.36058   1.000
    S36     S    0.49799   0.39621   0.25639   1.000
    S37     S    0.49800   0.89622   0.25639   1.000
    S38     S    0.01927   0.35270   0.65356   1.000
    S39     S    0.01927   0.85271   0.65356   1.000
    S40     S    0.98316   0.06122   0.50118   1.000
    S41     S    0.98316   0.56123   0.50118   1.000
    S42     S    0.72573   0.98616   0.63970   1.000
    S43     S    0.72573   0.48617   0.63970   1.000
    S44     S    0.99695   0.10563   0.74308   1.000
    S45     S    0.99694   0.60564   0.74308   1.000
    S46     S    0.48222   0.31046   0.00000   1.000
    S47     S    0.48223   0.81047   0.00000   1.000
    S48     S    0.22510   0.23625   0.86073   1.000
    S49     S    0.22511   0.73626   0.86073   1.000
    S50     S    0.49687   0.35573   0.75706   1.000
    S51     S    0.49689   0.85573   0.75706   1.000
    S52     S    0.01812   0.39702   0.15300   1.000
    S53     S    0.01812   0.89702   0.15300   1.000
    S54     S    0.98185   0.18868   0.00101   1.000
    S55     S    0.98185   0.68869   0.00100   1.000
    S56     S    0.72486   0.26280   0.13977   1.000
    S57     S    0.72486   0.76281   0.13977   1.000
    S58     S    0.99663   0.14441   0.24351   1.000
    S59     S    0.99663   0.64441   0.24350   1.000
    N60     N    0.38222   0.22170   0.45900   1.000
    N61     N    0.38222   0.72171   0.45899   1.000
    N62     N    0.33735   0.43742   0.14552   1.000
    N63     N    0.33736   0.93743   0.14552   1.000
    N64     N    0.63979   0.32260   0.45291   1.000
    N65     N    0.63979   0.82260   0.45291   1.000
    N66     N    0.19570   0.38384   0.46745   1.000
    N67     N    0.19570   0.88385   0.46745   1.000
    N68     N    0.88202   0.27920   0.54141   1.000
    N69     N    0.88203   0.77921   0.54141   1.000
    N70     N    0.83692   0.06355   0.85443   1.000
    N71     N    0.83691   0.56355   0.85443   1.000
    N72     N    0.13950   0.17857   0.54744   1.000
    N73     N    0.13951   0.67858   0.54744   1.000
    N74     N    0.69505   0.11729   0.53330   1.000
    N75     N    0.69505   0.61729   0.53329   1.000
    N76     N    0.33796   0.31323   0.64547   1.000
    N77     N    0.33797   0.81324   0.64547   1.000
    N78     N    0.63856   0.42802   0.95253   1.000
    N79     N    0.63856   0.92804   0.95252   1.000
    N80     N    0.19450   0.36603   0.00000   1.000
    N81     N    0.19451   0.86604   0.00000   1.000
    N82     N    0.88095   0.47073   0.04070   1.000
    N83     N    0.88096   0.97073   0.04070   1.000
    N84     N    0.83774   0.18755   0.35504   1.000
    N85     N    0.83775   0.68756   0.35504   1.000
    N86     N    0.13849   0.07147   0.04707   1.000
    N87     N    0.13848   0.57148   0.04707   1.000
    N88     N    0.69415   0.13274   0.03278   1.000
    N89     N    0.69415   0.63275   0.03279   1.000
loop_
    _geom_bond_atom_site_label_1
    _geom_bond_atom_site_label_2
    _geom_bond_distance
    _geom_bond_site_symmetry_2
    _ccdc_geom_bond_type
    S47    C19       1.64383  1_554   S
    S46    C18       1.64383  1_554   S
    N81    C21       1.59651  1_554   S
    N80    C20       1.59660  1_554   S
    S55    C27       1.63947  1_655   S
    S54    C26       1.63947  1_655   S
    C27    N87       1.18096      .   S
    C26    N86       1.18096      .   S
    N88    C28       1.18226      .   S
    N89    C29       1.18225      .   S
    N83    C23       1.17813      .   S
    N82    C22       1.17813      .   S
    C28    S56       1.63991      .   S
    C29    S57       1.63991      .   S
    C23    S53       1.64732  1_655   S
    C22    S52       1.64730  1_655   S
    N62    C2        1.18019      .   S
    N63    C3        1.18020      .   S
    C2     S36       1.64375      .   S
    C3     S37       1.64375      .   S
    S59    C25       1.64373      .   S
    S58    C24       1.64374      .   S
    C25    N85       1.18014      .   S
    C24    N84       1.18014      .   S
    S31    C1        1.64727      .   S
    S30    C0        1.64727      .   S
    S34    C6        1.63998      .   S
    S35    C7        1.46960  1_545   S
    C1     N61       1.17813      .   S
    C0     N60       1.17812      .   S
    C6     N66       1.18223      .   S
    C7     N67       1.18222      .   S
    N65    C5        1.18101      .   S
    N64    C4        1.18101      .   S
    C4     S32       1.63947      .   S
    C5     S33       1.63947      .   S
    S40    C12       1.63947  1_655   S
    S41    C13       1.63949  1_655   S
    C12    N72       1.18104      .   S
    C13    N73       1.18102      .   S
    N75    C15       1.18225      .   S
    N74    C14       1.18224      .   S
    N69    C9        1.17812      .   S
    N68    C8        1.17813      .   S
    C15    S43       1.63998      .   S
    C14    S42       1.63997  1_545   S
    C8     S38       1.64734  1_655   S
    C9     S39       1.64733  1_655   S
    N76    C16       1.18016      .   S
    N77    C17       1.18018      .   S
    C16    S50       1.64374      .   S
    C17    S51       1.64373      .   S
    S44    C10       1.64370      .   S
    S45    C11       1.64370      .   S
    C10    N70       1.18021      .   S
    C11    N71       1.18020      .   S
    S48    C20       1.63991      .   S
    S49    C21       1.63990      .   S
    N79    C19       1.18101      .   S
    N78    C18       1.18101      .   S
