# CIF file generated by openbabel 2.4.90, see http://openbabel.sf.net
data_I
_chemical_name_common ''
_cell_length_a 12.316
_cell_length_b 16.202
_cell_length_c 17.134
_cell_angle_alpha 89.853
_cell_angle_beta 89.941
_cell_angle_gamma 90.059
_space_group_name_H-M_alt 'P 1'
_space_group_name_Hall 'P 1'
loop_
    _symmetry_equiv_pos_as_xyz
    x,y,z
loop_
    _atom_site_label
    _atom_site_type_symbol
    _atom_site_fract_x
    _atom_site_fract_y
    _atom_site_fract_z
    _atom_site_occupancy
    Cd0     Cd   0.25789   0.77988   0.53580   1.000
    Cd1     Cd   0.75754   0.22112   0.46470   1.000
    Cd2     Cd   0.75755   0.72112   0.46469   1.000
    Cd3     Cd   0.25658   0.97015   0.03580   1.000
    Cd4     Cd   0.25657   0.47016   0.03580   1.000
    Cd5     Cd   0.75665   0.52945   0.96410   1.000
    Cd6     Cd   0.75666   0.00000   0.96410   1.000
    Hg7     Hg   0.43942   0.50179   0.36122   1.000
    Hg8     Hg   0.43943   0.00000   0.36123   1.000
    Hg9     Hg   0.93877   0.99930   0.63877   1.000
    Hg10    Hg   0.93877   0.49931   0.63877   1.000
    Hg11    Hg   0.43818   0.24920   0.86164   1.000
    Hg12    Hg   0.43819   0.74921   0.86165   1.000
    Hg13    Hg   0.93797   0.25019   0.13842   1.000
    Hg14    Hg   0.93797   0.75020   0.13842   1.000
    Cd15    Cd   0.25788   0.27988   0.53580   1.000
    S16     S    0.51859   0.10265   0.84659   1.000
    S17     S    0.51860   0.60265   0.84659   1.000
loop_
    _geom_bond_atom_site_label_1
    _geom_bond_atom_site_label_2
    _geom_bond_distance
    _geom_bond_site_symmetry_2
    _ccdc_geom_bond_type
    S16    Hg11      2.58704      .   S
    S17    Hg12      2.58704      .   S
