# CIF file generated by openbabel 2.4.90, see http://openbabel.sf.net
data_I
_chemical_name_common ''
_cell_length_a 12.316
_cell_length_b 16.202
_cell_length_c 17.134
_cell_angle_alpha 89.853
_cell_angle_beta 89.941
_cell_angle_gamma 90.059
_space_group_name_H-M_alt 'P 1'
_space_group_name_Hall 'P 1'
loop_
    _symmetry_equiv_pos_as_xyz
    x,y,z
loop_
    _atom_site_label
    _atom_site_type_symbol
    _atom_site_fract_x
    _atom_site_fract_y
    _atom_site_fract_z
    _atom_site_occupancy
    N0      N    0.44703   0.18685   0.40607   1.000
    N1      N    0.44703   0.68685   0.40606   1.000
    N2      N    0.41326   0.41841   0.19809   1.000
    N3      N    0.41327   0.91843   0.19809   1.000
    N4      N    0.56573   0.37811   0.47437   1.000
    N5      N    0.56573   0.87812   0.47437   1.000
    N6      N    0.21066   0.94070   0.41683   1.000
    N7      N    0.94654   0.31424   0.59439   1.000
    N8      N    0.21065   0.44557   0.41682   1.000
    N9      N    0.94654   0.81424   0.59439   1.000
    N10     N    0.91255   0.08296   0.80163   1.000
    N11     N    0.91254   0.58297   0.80164   1.000
    N12     N    0.06555   0.12299   0.52579   1.000
    N13     N    0.06555   0.62300   0.52580   1.000
    N14     N    0.71001   0.05540   0.58370   1.000
    N15     N    0.71001   0.55541   0.58370   1.000
    N16     N    0.41306   0.33285   0.69837   1.000
    N17     N    0.41307   0.83285   0.69837   1.000
    N18     N    0.56461   0.37234   0.97463   1.000
    N19     N    0.56462   0.87235   0.97463   1.000
    N20     N    0.20941   0.30479   0.92785   1.000
    N21     N    0.20942   0.80480   0.92785   1.000
    N22     N    0.94543   0.43559   0.09375   1.000
    N23     N    0.94543   0.93560   0.09375   1.000
    N24     N    0.91283   0.16762   0.30216   1.000
    N25     N    0.91283   0.66763   0.30216   1.000
    N26     N    0.06440   0.12699   0.02553   1.000
    N27     N    0.06439   0.62700   0.02552   1.000
    N28     N    0.70912   0.19412   0.08346   1.000
    N29     N    0.70911   0.69413   0.08346   1.000
    Zr30    Zr   0.25789   0.77988   0.53580   1.000
    O31     O    0.32071   0.74935   0.49376   1.000
    O32     O    0.23831   0.83308   0.49751   1.000
    O33     O    0.19501   0.72800   0.53475   1.000
    O34     O    0.30669   0.79729   0.59015   1.000
    Zr35    Zr   0.75754   0.22112   0.46470   1.000
    O36     O    0.80639   0.20355   0.41036   1.000
    O37     O    0.69487   0.27305   0.46564   1.000
    O38     O    0.82035   0.25166   0.50671   1.000
    O39     O    0.73785   0.16671   0.50302   1.000
    Zr40    Zr   0.75755   0.72112   0.46469   1.000
    O41     O    0.73785   0.66672   0.50302   1.000
    O42     O    0.80639   0.70355   0.41035   1.000
    O43     O    0.82036   0.75166   0.50671   1.000
    O44     O    0.69488   0.77306   0.46564   1.000
    Zr45    Zr   0.25658   0.97015   0.03580   1.000
    O46     O    0.23703   0.91580   0.00434   1.000
    O47     O    0.30585   0.95313   0.09009   1.000
    O48     O    0.19377   0.02203   0.03465   1.000
    Zr49    Zr   0.25657   0.47016   0.03580   1.000
    O50     O    0.23702   0.41580   0.00434   1.000
    O51     O    0.19376   0.52203   0.03464   1.000
    O52     O    0.30584   0.45313   0.09009   1.000
    Zr53    Zr   0.75665   0.52945   0.96410   1.000
    O54     O    0.81938   0.49865   0.00609   1.000
    O55     O    0.73695   0.58353   0.00253   1.000
    O56     O    0.69388   0.47750   0.96529   1.000
    O57     O    0.80565   0.54709   0.90978   1.000
    Zr58    Zr   0.75666   0.00000   0.96410   1.000
    O59     O    0.69389   0.95909   0.96528   1.000
    O60     O    0.73696   0.06512   0.00252   1.000
    O61     O    0.81939   0.98024   0.00609   1.000
    O62     O    0.80566   0.02868   0.90977   1.000
    Zr63    Zr   0.43942   0.50179   0.36122   1.000
    O64     O    0.47647   0.46313   0.40670   1.000
    O65     O    0.44020   0.46775   0.30733   1.000
    O66     O    0.45141   0.56641   0.37065   1.000
    O67     O    0.35560   0.48934   0.37504   1.000
    Zr68    Zr   0.43943   0.00000   0.36123   1.000
    O69     O    0.44021   0.96663   0.30734   1.000
    O70     O    0.47648   0.96201   0.40671   1.000
    O71     O    0.35561   0.98517   0.37505   1.000
    O72     O    0.45141   0.06529   0.37065   1.000
    Zr73    Zr   0.93877   0.99930   0.63877   1.000
    O74     O    0.95078   0.93471   0.62952   1.000
    O75     O    0.85495   0.01168   0.62512   1.000
    O76     O    0.93949   0.03351   0.69252   1.000
    O77     O    0.97601   0.03796   0.59332   1.000
    Zr78    Zr   0.93877   0.49931   0.63877   1.000
    O79     O    0.95078   0.43472   0.62952   1.000
    O80     O    0.97602   0.53797   0.59333   1.000
    O81     O    0.85495   0.51169   0.62512   1.000
    O82     O    0.93949   0.53352   0.69253   1.000
    Zr83    Zr   0.47839   0.17593   0.85412   1.000
    O84     O    0.45934   0.24679   0.80399   1.000
    O85     O    0.49540   0.25101   0.90342   1.000
    O86     O    0.37446   0.22484   0.87432   1.000
    Zr87    Zr   0.47839   0.67593   0.85412   1.000
    O88     O    0.45935   0.74680   0.80399   1.000
    O89     O    0.37447   0.72485   0.87432   1.000
    O90     O    0.49540   0.75101   0.90342   1.000
    Zr91    Zr   0.93797   0.25019   0.13842   1.000
    O92     O    0.85412   0.23775   0.12485   1.000
    O93     O    0.93902   0.21633   0.19249   1.000
    O94     O    0.97506   0.21170   0.09302   1.000
    O95     O    0.94985   0.31489   0.12908   1.000
    Zr96    Zr   0.93797   0.75020   0.13842   1.000
    O97     O    0.97506   0.71171   0.09302   1.000
    O98     O    0.85411   0.73776   0.12485   1.000
    O99     O    0.94985   0.81490   0.12908   1.000
    O100    O    0.93902   0.71633   0.19249   1.000
    Zr101   Zr   0.25788   0.27988   0.53580   1.000
    O102    O    0.30668   0.29729   0.59015   1.000
    O103    O    0.23830   0.33430   0.49751   1.000
    O104    O    0.19500   0.22799   0.53475   1.000
    O105    O    0.32071   0.24935   0.49376   1.000
loop_
    _geom_bond_atom_site_label_1
    _geom_bond_atom_site_label_2
    _geom_bond_distance
    _geom_bond_site_symmetry_2
    _ccdc_geom_bond_type
    Zr30   O31       1.16773      .   S
    N1     O31       2.38953      .   S
    Zr30   O32       1.10874      .   S
    N6     O32       2.24880      .   S
    Zr30   O33       1.14259      .   S
    N13    O33       2.33582      .   S
    Zr30   O34       1.14469      .   S
    N17    O34       2.34428      .   S
    Zr35   O36       1.14472      .   S
    N24    O36       2.34435      .   S
    Zr35   O37       1.14256      .   S
    N4     O37       2.33581      .   S
    Zr35   O38       1.16772      .   S
    N7     O38       2.38946      .   S
    Zr35   O39       1.12402      .   S
    N14    O39       2.29474      .   S
    Zr40   O41       1.12402      .   S
    N15    O41       2.29474      .   S
    Zr40   O42       1.14472      .   S
    N25    O42       2.34435      .   S
    Zr40   O43       1.16773      .   S
    N9     O43       2.38946      .   S
    Zr40   O44       1.14256      .   S
    N5     O44       2.33580      .   S
    Zr45   O46       1.06131      .   S
    N21    O46       2.25378  1_556   S
    Zr45   O47       1.14441      .   S
    N3     O47       2.34350      .   S
    Zr45   O48       1.14297  1_565   S
    N26    O48       2.33667      .   S
    Zr49   O50       1.06138      .   S
    N20    O50       2.25391  1_556   S
    Zr49   O51       1.14297      .   S
    N27    O51       2.33667      .   S
    Zr49   O52       1.14443      .   S
    N2     O52       2.34353      .   S
    Zr53   O54       1.16778  1_556   S
    N22    O54       2.38953      .   S
    Zr53   O55       1.12392  1_556   S
    N29    O55       2.29448      .   S
    Zr53   O56       1.14247      .   S
    N18    O56       2.33568      .   S
    Zr53   O57       1.14433      .   S
    N11    O57       2.34342      .   S
    Zr58   O59       1.01794  1_545   S
    N19    O59       2.12816      .   S
    Zr58   O60       1.26862  1_556   S
    N28    O60       2.53464      .   S
    Zr58   O61       1.10337  1_546   S
    N23    O61       2.27828      .   S
    Zr58   O62       1.20112      .   S
    N10    O62       2.43383      .   S
    Zr63   O64       1.09859      .   S
    N4     O64       2.10881      .   S
    Zr63   O65       1.07677      .   S
    N2     O65       2.06427      .   S
    Zr63   O66       1.06978      .   S
    N1     O66       2.04584      .   S
    Zr63   O67       1.07766      .   S
    N8     O67       2.04804      .   S
    Zr68   O69       1.07118  1_545   S
    N3     O69       2.05723      .   S
    Zr68   O70       1.09238  1_545   S
    N5     O70       2.09693      .   S
    Zr68   O71       1.08547  1_545   S
    N6     O71       2.05200      .   S
    Zr68   O72       1.08042      .   S
    N0     O72       2.06313      .   S
    Zr73   O74       1.06918      .   S
    N9     O74       2.04467      .   S
    Zr73   O75       1.07768  1_565   S
    N14    O75       2.04808      .   S
    Zr73   O76       1.07621  1_565   S
    N10    O76       2.06260      .   S
    Zr73   O77       1.09778  1_565   S
    N12    O77       2.10677  1_455   S
    Zr78   O79       1.06928      .   S
    N7     O79       2.04483      .   S
    Zr78   O80       1.09778      .   S
    N13    O80       2.10678  1_455   S
    Zr78   O81       1.07767      .   S
    N15    O81       2.04807      .   S
    Zr78   O82       1.07621      .   S
    N11    O82       2.06261      .   S
    Zr83   O84       1.45153      .   S
    N16    O84       2.35259      .   S
    Zr83   O85       1.49748      .   S
    N18    O85       2.46801      .   S
    Zr83   O86       1.54560      .   S
    N20    O86       2.58044      .   S
    Zr87   O88       1.45152      .   S
    N17    O88       2.35258      .   S
    Zr87   O89       1.54559      .   S
    N21    O89       2.58042      .   S
    Zr87   O90       1.49750      .   S
    N19    O90       2.46803      .   S
    Zr91   O92       1.07774      .   S
    N28    O92       2.04800      .   S
    Zr91   O93       1.07561      .   S
    N24    O93       2.06110      .   S
    Zr91   O94       1.09774      .   S
    N26    O94       2.10720  1_455   S
    Zr91   O95       1.06995      .   S
    N22    O95       2.04634      .   S
    Zr96   O97       1.09774      .   S
    N27    O97       2.10719  1_455   S
    Zr96   O98       1.07774      .   S
    N29    O98       2.04800      .   S
    Zr96   O99       1.06995      .   S
    N23    O99       2.04634      .   S
    Zr96   O100      1.07561      .   S
    N25    O100      2.06110      .   S
    Zr101  O102      1.14469      .   S
    N16    O102      2.34427      .   S
    Zr101  O103      1.12415      .   S
    N8     O103      2.29503      .   S
    Zr101  O104      1.14260      .   S
    N12    O104      2.33582      .   S
    Zr101  O105      1.16773      .   S
    N0     O105      2.38953      .   S
