# CIF file generated by openbabel 2.4.90, see http://openbabel.sf.net
data_I
_chemical_name_common ''
_cell_length_a 12.316
_cell_length_b 16.202
_cell_length_c 17.134
_cell_angle_alpha 89.853
_cell_angle_beta 89.941
_cell_angle_gamma 90.059
_space_group_name_H-M_alt 'P 1'
_space_group_name_Hall 'P 1'
loop_
    _symmetry_equiv_pos_as_xyz
    x,y,z
loop_
    _atom_site_label
    _atom_site_type_symbol
    _atom_site_fract_x
    _atom_site_fract_y
    _atom_site_fract_z
    _atom_site_occupancy
    Zr0     Zr   0.25788   0.27988   0.53580   1.000
    Zr1     Zr   0.25789   0.77988   0.53580   1.000
    Zr2     Zr   0.75754   0.22112   0.46470   1.000
    Zr3     Zr   0.75755   0.72112   0.46469   1.000
    Zr4     Zr   0.25658   0.97015   0.03580   1.000
    Zr5     Zr   0.25657   0.47016   0.03580   1.000
    Zr6     Zr   0.75665   0.52945   0.96410   1.000
    Zr7     Zr   0.75666   0.00000   0.96410   1.000
    Zr8     Zr   0.43942   0.50179   0.36122   1.000
    Zr9     Zr   0.43943   0.00000   0.36123   1.000
    Zr10    Zr   0.93877   0.99930   0.63877   1.000
    Zr11    Zr   0.93877   0.49931   0.63877   1.000
    Zr12    Zr   0.43818   0.24920   0.86164   1.000
    Zr13    Zr   0.43819   0.74921   0.86165   1.000
    Zr14    Zr   0.93797   0.25019   0.13842   1.000
    Zr15    Zr   0.93797   0.75020   0.13842   1.000
    Zr16    Zr   0.51859   0.10265   0.84659   1.000
    Zr17    Zr   0.51860   0.60265   0.84659   1.000
    O18     O    0.47839   0.17593   0.85412   1.000
    O19     O    0.47839   0.67593   0.85412   1.000
    N20     N    0.44703   0.18685   0.40607   1.000
    O21     O    0.46339   0.13057   0.38008   1.000
    O22     O    0.38354   0.21882   0.45173   1.000
    N23     N    0.44703   0.68685   0.40606   1.000
    O24     O    0.46339   0.63102   0.38007   1.000
    O25     O    0.38354   0.71883   0.45173   1.000
    N26     N    0.41326   0.41841   0.19809   1.000
    O27     O    0.44098   0.43371   0.25345   1.000
    O28     O    0.35511   0.43610   0.14437   1.000
    N29     N    0.41327   0.91843   0.19809   1.000
    O30     O    0.44099   0.93327   0.25345   1.000
    O31     O    0.35512   0.93611   0.14438   1.000
    N32     N    0.56573   0.37811   0.47437   1.000
    O33     O    0.51352   0.42446   0.45219   1.000
    O34     O    0.63220   0.32499   0.46658   1.000
    N35     N    0.56573   0.87812   0.47437   1.000
    O36     O    0.51353   0.92401   0.45219   1.000
    O37     O    0.63220   0.82499   0.46658   1.000
    N38     N    0.21066   0.94070   0.41683   1.000
    O39     O    0.27178   0.97035   0.38887   1.000
    O40     O    0.21873   0.88628   0.45923   1.000
    N41     N    0.94654   0.31424   0.59439   1.000
    O42     O    0.96278   0.37012   0.62028   1.000
    O43     O    0.88316   0.28220   0.54872   1.000
    N44     N    0.21065   0.44557   0.41682   1.000
    O45     O    0.27177   0.47689   0.38886   1.000
    O46     O    0.21872   0.38872   0.45922   1.000
    N47     N    0.94654   0.81424   0.59439   1.000
    O48     O    0.96278   0.87012   0.62028   1.000
    O49     O    0.88316   0.78220   0.54872   1.000
    N50     N    0.91255   0.08296   0.80163   1.000
    O51     O    0.94020   0.06772   0.74628   1.000
    O52     O    0.85467   0.05737   0.85545   1.000
    N53     N    0.91254   0.58297   0.80164   1.000
    O54     O    0.94020   0.56772   0.74628   1.000
    O55     O    0.85466   0.56474   0.85545   1.000
    N56     N    0.06555   0.12299   0.52579   1.000
    O57     O    0.01326   0.07662   0.54788   1.000
    O58     O    0.13212   0.17611   0.53371   1.000
    N59     N    0.06555   0.62300   0.52580   1.000
    O60     O    0.01326   0.57663   0.54789   1.000
    O61     O    0.13212   0.67611   0.53371   1.000
    N62     N    0.71001   0.05540   0.58370   1.000
    O63     O    0.77113   0.02407   0.61147   1.000
    O64     O    0.71815   0.11230   0.54135   1.000
    N65     N    0.71001   0.55541   0.58370   1.000
    O66     O    0.77113   0.52407   0.61147   1.000
    O67     O    0.71816   0.61231   0.54135   1.000
    N68     N    0.40908   0.04432   0.00000   1.000
    O69     O    0.36389   0.02179   0.00895   1.000
    N70     N    0.40908   0.54433   0.00000   1.000
    O71     O    0.36388   0.52180   0.00895   1.000
    N72     N    0.41306   0.33285   0.69837   1.000
    O73     O    0.44029   0.31766   0.75386   1.000
    O74     O    0.35549   0.31470   0.64450   1.000
    N75     N    0.41307   0.83285   0.69837   1.000
    O76     O    0.44031   0.81766   0.75386   1.000
    O77     O    0.35550   0.81471   0.64450   1.000
    N78     N    0.56461   0.37234   0.97463   1.000
    O79     O    0.51241   0.32609   0.95273   1.000
    O80     O    0.63111   0.42554   0.96647   1.000
    N81     N    0.56462   0.87235   0.97463   1.000
    O82     O    0.51241   0.82610   0.95273   1.000
    O83     O    0.63111   0.91819   0.96647   1.000
    N84     N    0.20941   0.30479   0.92785   1.000
    O85     O    0.27053   0.27376   0.89452   1.000
    O86     O    0.21747   0.36144   0.97287   1.000
    N87     N    0.20942   0.80480   0.92785   1.000
    O88     O    0.27054   0.77376   0.89452   1.000
    O89     O    0.21748   0.86145   0.97288   1.000
    N90     N    0.94543   0.43559   0.09375   1.000
    O91     O    0.96173   0.37960   0.11973   1.000
    O92     O    0.88211   0.46784   0.04807   1.000
    N93     N    0.94543   0.93560   0.09375   1.000
    O94     O    0.96173   0.87960   0.11973   1.000
    O95     O    0.88212   0.96048   0.04807   1.000
    N96     N    0.91283   0.16762   0.30216   1.000
    O97     O    0.94007   0.18246   0.24656   1.000
    O98     O    0.85524   0.18598   0.35602   1.000
    N99     N    0.91283   0.66763   0.30216   1.000
    O100    O    0.94006   0.68247   0.24656   1.000
    O101    O    0.85524   0.68598   0.35601   1.000
    N102    N    0.06440   0.12699   0.02553   1.000
    O103    O    0.01215   0.17321   0.04762   1.000
    O104    O    0.13096   0.07390   0.03349   1.000
    N105    N    0.06439   0.62700   0.02552   1.000
    O106    O    0.01215   0.67322   0.04762   1.000
    O107    O    0.13095   0.57391   0.03348   1.000
    N108    N    0.70912   0.19412   0.08346   1.000
    O109    O    0.77027   0.22531   0.11128   1.000
    O110    O    0.71726   0.13025   0.04095   1.000
    N111    N    0.70911   0.69413   0.08346   1.000
    O112    O    0.77026   0.72532   0.11128   1.000
    O113    O    0.71726   0.63761   0.04095   1.000
loop_
    _geom_bond_atom_site_label_1
    _geom_bond_atom_site_label_2
    _geom_bond_distance
    _geom_bond_site_symmetry_2
    _ccdc_geom_bond_type
    Zr16   O18       1.29352      .   S
    Zr12   O18       1.29352      .   S
    Zr17   O19       1.29352      .   S
    Zr13   O19       1.29352      .   S
    N20    O21       1.03565      .   S
    Zr9    O21       2.16084      .   S
    N20    O22       1.22213      .   S
    Zr0    O22       2.33546      .   S
    N23    O24       1.02927      .   S
    Zr8    O24       2.13956      .   S
    N23    O25       1.22213      .   S
    Zr1    O25       2.33545      .   S
    N26    O27       1.03891      .   S
    Zr8    O27       2.15355      .   S
    N26    O28       1.20101      .   S
    Zr5    O28       2.28886      .   S
    N29    O30       1.03718      .   S
    Zr9    O30       2.14235  1_545   S
    N29    O31       1.20100      .   S
    Zr4    O31       2.28881      .   S
    N32    O33       1.05904      .   S
    Zr8    O33       2.19717      .   S
    N32    O34       1.19612      .   S
    Zr2    O34       2.28513      .   S
    N35    O36       1.05387      .   S
    Zr9    O36       2.18476  1_545   S
    N35    O37       1.19611      .   S
    Zr3    O37       2.28512      .   S
    N38    O39       1.01212      .   S
    Zr9    O39       2.17093  1_545   S
    N38    O40       1.14541      .   S
    Zr1    O40       2.21747      .   S
    N41    O42       1.02882      .   S
    Zr11   O42       2.13856      .   S
    N41    O43       1.22207      .   S
    Zr2    O43       2.33545      .   S
    N44    O45       1.02520      .   S
    Zr8    O45       2.15532      .   S
    N44    O46       1.17607      .   S
    Zr0    O46       2.24831      .   S
    N47    O48       1.02876      .   S
    Zr10   O48       2.13836      .   S
    N47    O49       1.22207      .   S
    Zr3    O49       2.33545      .   S
    N50    O51       1.03798      .   S
    Zr10   O51       2.15241  1_565   S
    N50    O52       1.23545      .   S
    Zr7    O52       2.40224      .   S
    N53    O54       1.03798      .   S
    Zr11   O54       2.15242      .   S
    N53    O55       1.20099      .   S
    Zr6    O55       2.28866      .   S
    N56    O57       1.05798      .   S
    Zr10   O57       2.19556  1_665   S
    N56    O58       1.19611      .   S
    Zr0    O58       2.28519      .   S
    N59    O60       1.05799      .   S
    Zr11   O60       2.19557  1_655   S
    N59    O61       1.19611      .   S
    Zr1    O61       2.28518      .   S
    N62    O63       1.02521      .   S
    Zr10   O63       2.15536  1_565   S
    N62    O64       1.17593      .   S
    Zr2    O64       2.24804      .   S
    N65    O66       1.02521      .   S
    Zr11   O66       2.15535      .   S
    N65    O67       1.17593      .   S
    Zr3    O67       2.24804      .   S
    N68    O69       0.68243      .   S
    Zr4    O69       1.62876  1_565   S
    N70    O71       0.68245      .   S
    Zr5    O71       1.62879      .   S
    N72    O73       1.03762      .   S
    Zr12   O73       2.15191      .   S
    N72    O74       1.20143      .   S
    Zr0    O74       2.28937      .   S
    N75    O76       1.03762      .   S
    Zr13   O76       2.15191      .   S
    N75    O77       1.20143      .   S
    Zr1    O77       2.28937      .   S
    N78    O79       1.05681      .   S
    Zr12   O79       2.19851      .   S
    N78    O80       1.19619      .   S
    Zr6    O80       2.28493      .   S
    N81    O82       1.05681      .   S
    Zr13   O82       2.19851      .   S
    N81    O83       1.11340      .   S
    Zr7    O83       2.03588  1_545   S
    N84    O85       1.07092      .   S
    Zr12   O85       2.17705      .   S
    N84    O86       1.20467      .   S
    Zr5    O86       2.12276  1_554   S
    N87    O88       1.07090      .   S
    Zr13   O88       2.17704      .   S
    N87    O89       1.20461      .   S
    Zr4    O89       2.12261  1_554   S
    N90    O91       1.02955      .   S
    Zr14   O91       2.13991      .   S
    N90    O92       1.22209      .   S
    Zr6    O92       2.33556  1_556   S
    N93    O94       1.02955      .   S
    Zr15   O94       2.13990      .   S
    N93    O95       1.17615      .   S
    Zr7    O95       2.20674  1_546   S
    N96    O97       1.03720      .   S
    Zr14   O97       2.15122      .   S
    N96    O98       1.20146      .   S
    Zr2    O98       2.28945      .   S
    N99    O100      1.03719      .   S
    Zr15   O100      2.15123      .   S
    N99    O101      1.20146      .   S
    Zr3    O101      2.28944      .   S
    N102   O103      1.05834      .   S
    Zr14   O103      2.19547  1_655   S
    N102   O104      1.19653      .   S
    Zr4    O104      2.28594  1_565   S
    N105   O106      1.05834      .   S
    Zr15   O106      2.19547  1_655   S
    N105   O107      1.19653      .   S
    Zr5    O107      2.28593      .   S
    N108   O109      1.02511      .   S
    Zr14   O109      2.15548      .   S
    N108   O110      1.27106      .   S
    Zr7    O110      2.53724  1_556   S
    N111   O112      1.02510      .   S
    Zr15   O112      2.15548      .   S
    N111   O113      1.17579      .   S
    Zr6    O113      2.24783  1_556   S
