# CIF file generated by openbabel 2.4.90, see http://openbabel.sf.net
data_I
_chemical_name_common ''
_cell_length_a 23.037
_cell_length_b 15.262
_cell_length_c 18.164
_cell_angle_alpha 89.982
_cell_angle_beta 90
_cell_angle_gamma 89.902
_space_group_name_H-M_alt 'P 1'
_space_group_name_Hall 'P 1'
loop_
    _symmetry_equiv_pos_as_xyz
    x,y,z
loop_
    _atom_site_label
    _atom_site_type_symbol
    _atom_site_fract_x
    _atom_site_fract_y
    _atom_site_fract_z
    _atom_site_occupancy
    H0      H    0.34891   0.67773   0.04775   1.000
    H1      H    0.84892   0.67773   0.04775   1.000
    H2      H    0.45621   0.68597   0.04826   1.000
    H3      H    0.95622   0.68597   0.04826   1.000
    H4      H    0.45704   0.42644   0.14515   1.000
    H5      H    0.95705   0.42644   0.14515   1.000
    H6      H    0.34986   0.43065   0.14027   1.000
    H7      H    0.84986   0.43065   0.14027   1.000
    H8      H    0.34921   0.32222   0.95227   1.000
    H9      H    0.84922   0.32222   0.95227   1.000
    H10     H    0.45653   0.31401   0.95176   1.000
    H11     H    0.95654   0.31401   0.95176   1.000
    H12     H    0.45674   0.57349   0.85477   1.000
    H13     H    0.95675   0.57349   0.85477   1.000
    H14     H    0.34957   0.56924   0.85963   1.000
    H15     H    0.84958   0.56924   0.85963   1.000
    H16     H    0.15109   0.82221   0.54768   1.000
    H17     H    0.65111   0.82221   0.54768   1.000
    H18     H    0.04380   0.81396   0.54822   1.000
    H19     H    0.54381   0.81396   0.54822   1.000
    H20     H    0.04297   0.07343   0.64514   1.000
    H21     H    0.54298   0.07343   0.64514   1.000
    H22     H    0.15016   0.06923   0.64024   1.000
    H23     H    0.65017   0.06923   0.64024   1.000
    H24     H    0.15079   0.17779   0.45234   1.000
    H25     H    0.65080   0.17779   0.45234   1.000
    H26     H    0.04347   0.18601   0.45100   1.000
    H27     H    0.54348   0.18601   0.45100   1.000
    H28     H    0.04328   0.92659   0.35478   1.000
    H29     H    0.54329   0.92659   0.35478   1.000
    H30     H    0.15045   0.93083   0.35960   1.000
    H31     H    0.65046   0.93083   0.35967   1.000
    H32     H    0.15110   0.32225   0.95222   1.000
    H33     H    0.65111   0.32225   0.95222   1.000
    H34     H    0.04380   0.31400   0.95171   1.000
    H35     H    0.54381   0.31400   0.95171   1.000
    H36     H    0.04296   0.57354   0.85481   1.000
    H37     H    0.54297   0.57354   0.85481   1.000
    H38     H    0.15015   0.56933   0.85970   1.000
    H39     H    0.65016   0.56933   0.85970   1.000
    H40     H    0.15080   0.67775   0.04770   1.000
    H41     H    0.65081   0.67775   0.04770   1.000
    H42     H    0.04348   0.68597   0.04821   1.000
    H43     H    0.54349   0.68597   0.04821   1.000
    H44     H    0.04327   0.42648   0.14520   1.000
    H45     H    0.54328   0.42648   0.14520   1.000
    H46     H    0.15044   0.43073   0.14034   1.000
    H47     H    0.65045   0.43073   0.14034   1.000
    H48     H    0.34891   0.17777   0.45229   1.000
    H49     H    0.84892   0.17777   0.45229   1.000
    H50     H    0.45621   0.18602   0.45175   1.000
    H51     H    0.95622   0.18602   0.45175   1.000
    H52     H    0.45704   0.92654   0.35483   1.000
    H53     H    0.95705   0.92654   0.35483   1.000
    H54     H    0.34985   0.93075   0.35973   1.000
    H55     H    0.84986   0.93075   0.35973   1.000
    H56     H    0.34922   0.82218   0.54763   1.000
    H57     H    0.84923   0.82218   0.54763   1.000
    H58     H    0.45654   0.81396   0.54817   1.000
    H59     H    0.95655   0.81396   0.54817   1.000
    H60     H    0.45673   0.07339   0.64519   1.000
    H61     H    0.95674   0.07339   0.64519   1.000
    H62     H    0.34956   0.06914   0.64030   1.000
    H63     H    0.84957   0.06914   0.64030   1.000
    H64     H    0.25001   0.97313   0.83241   1.000
    H65     H    0.75003   0.97313   0.83241   1.000
    H66     H    0.24996   0.79693   0.01926   1.000
    H67     H    0.74998   0.79693   0.01926   1.000
    H68     H    0.24997   0.69512   0.79763   1.000
    H69     H    0.74998   0.69512   0.79763   1.000
    H70     H    0.24999   0.02685   0.16756   1.000
    H71     H    0.75000   0.02685   0.16756   1.000
    H72     H    0.25004   0.20304   0.98070   1.000
    H73     H    0.75005   0.20304   0.98070   1.000
    H74     H    0.25005   0.30486   0.20230   1.000
    H75     H    0.75005   0.30486   0.20230   1.000
    H76     H    0.24999   0.52690   0.33242   1.000
    H77     H    0.75000   0.52690   0.33242   1.000
    H78     H    0.25004   0.70301   0.51922   1.000
    H79     H    0.75005   0.70301   0.51922   1.000
    H80     H    0.25004   0.80493   0.29759   1.000
    H81     H    0.75005   0.80493   0.29759   1.000
    H82     H    0.25002   0.47307   0.66755   1.000
    H83     H    0.75003   0.47307   0.66755   1.000
    H84     H    0.24996   0.29696   0.48075   1.000
    H85     H    0.74998   0.29696   0.48075   1.000
    H86     H    0.24997   0.19504   0.70238   1.000
    H87     H    0.74998   0.19504   0.70238   1.000
    C88     C    0.37506   0.62344   0.06834   1.000
    C89     C    0.87507   0.62344   0.06834   1.000
    C90     C    0.43533   0.62709   0.06912   1.000
    C91     C    0.93534   0.62709   0.06912   1.000
    C92     C    0.75002   0.10541   0.06785   1.000
    C93     C    0.25003   0.19150   0.03994   1.000
    C94     C    0.75004   0.19150   0.03994   1.000
    C95     C    0.25004   0.26311   0.08815   1.000
    C96     C    0.46779   0.55591   0.09603   1.000
    C97     C    0.96780   0.55591   0.09603   1.000
    C98     C    0.43581   0.48417   0.12250   1.000
    C99     C    0.93582   0.48417   0.12250   1.000
    C100    C    0.37558   0.48546   0.12002   1.000
    C101    C    0.87559   0.48546   0.12002   1.000
    C102    C    0.37523   0.37650   0.93165   1.000
    C103    C    0.87524   0.37650   0.93165   1.000
    C104    C    0.43551   0.37287   0.93087   1.000
    C105    C    0.93552   0.37287   0.93087   1.000
    C106    C    0.46780   0.44405   0.90394   1.000
    C107    C    0.96781   0.44405   0.90394   1.000
    C108    C    0.43565   0.51576   0.87744   1.000
    C109    C    0.93565   0.51576   0.87740   1.000
    C110    C    0.37542   0.51445   0.87991   1.000
    C111    C    0.87543   0.51445   0.87991   1.000
    C112    C    0.12495   0.87647   0.56820   1.000
    C113    C    0.62496   0.87647   0.56829   1.000
    C114    C    0.06468   0.87282   0.56908   1.000
    C115    C    0.56469   0.87282   0.56908   1.000
    C116    C    0.03222   0.94397   0.59600   1.000
    C117    C    0.53223   0.94397   0.59600   1.000
    C118    C    0.06420   0.01572   0.62248   1.000
    C119    C    0.56421   0.01572   0.62248   1.000
    C120    C    0.12443   0.01444   0.61990   1.000
    C121    C    0.62444   0.01444   0.61999   1.000
    C122    C    0.12478   0.12354   0.43170   1.000
    C123    C    0.62479   0.12353   0.43170   1.000
    N124    N    0.15483   0.44661   0.90751   1.000
    N125    N    0.65484   0.44661   0.90751   1.000
    N126    N    0.15483   0.55342   0.09247   1.000
    N127    N    0.65484   0.55342   0.09247   1.000
    N128    N    0.34518   0.05344   0.40756   1.000
    C129    C    0.06450   0.12717   0.43091   1.000
    C130    C    0.56451   0.12717   0.43091   1.000
    C131    C    0.03221   0.05602   0.40396   1.000
    C132    C    0.53222   0.05602   0.40396   1.000
    C133    C    0.06437   0.98430   0.37746   1.000
    C134    C    0.56438   0.98430   0.37746   1.000
    C135    C    0.12459   0.98561   0.37994   1.000
    C136    C    0.62460   0.98560   0.37994   1.000
    C137    C    0.12495   0.37653   0.93163   1.000
    C138    C    0.62496   0.37653   0.93163   1.000
    C139    C    0.06468   0.37289   0.93085   1.000
    C140    C    0.56469   0.37289   0.93085   1.000
    C141    C    0.03222   0.44406   0.90394   1.000
    C142    C    0.53223   0.44406   0.90394   1.000
    C143    C    0.06420   0.51580   0.87740   1.000
    C144    C    0.56421   0.51580   0.87740   1.000
    C145    C    0.12443   0.51451   0.87995   1.000
    C146    C    0.62444   0.51451   0.87995   1.000
    C147    C    0.12478   0.62347   0.06832   1.000
    C148    C    0.62479   0.62347   0.06832   1.000
    C149    C    0.06450   0.62710   0.06910   1.000
    C150    C    0.56451   0.62710   0.06910   1.000
    C151    C    0.03221   0.55593   0.09603   1.000
    C152    C    0.53222   0.55593   0.09603   1.000
    C153    C    0.06436   0.48421   0.12253   1.000
    C154    C    0.56437   0.48421   0.12253   1.000
    C155    C    0.12459   0.48553   0.12006   1.000
    C156    C    0.62460   0.48552   0.12006   1.000
    C157    C    0.37506   0.12350   0.43168   1.000
    C158    C    0.87507   0.12350   0.43168   1.000
    C159    C    0.43533   0.12715   0.43089   1.000
    C160    C    0.93534   0.12715   0.43089   1.000
    C161    C    0.46779   0.05600   0.40397   1.000
    C162    C    0.96780   0.05600   0.40397   1.000
    C163    C    0.43581   0.98425   0.37749   1.000
    C164    C    0.93582   0.98425   0.37749   1.000
    C165    C    0.37558   0.98554   0.37998   1.000
    C166    C    0.87559   0.98554   0.37998   1.000
    C167    C    0.37523   0.87644   0.56827   1.000
    C168    C    0.87524   0.87644   0.56827   1.000
    C169    C    0.43551   0.87281   0.56906   1.000
    C170    C    0.93552   0.87281   0.56906   1.000
    C171    C    0.46780   0.94396   0.59600   1.000
    C172    C    0.96781   0.94396   0.59600   1.000
    C173    C    0.43564   0.01568   0.62251   1.000
    C174    C    0.93565   0.01568   0.62251   1.000
    C175    C    0.37542   0.01437   0.62003   1.000
    C176    C    0.87543   0.01437   0.62003   1.000
    C177    C    0.24998   0.83581   0.80707   1.000
    C178    C    0.75002   0.83581   0.80707   1.000
    C179    C    0.25000   0.90717   0.85521   1.000
    C180    C    0.75002   0.90717   0.85521   1.000
    C181    C    0.24999   0.89456   0.93210   1.000
    C182    C    0.75001   0.89456   0.93210   1.000
    C183    C    0.24997   0.80847   0.96003   1.000
    C184    C    0.74999   0.80847   0.96003   1.000
    C185    C    0.24997   0.73686   0.91182   1.000
    C186    C    0.74998   0.73686   0.91182   1.000
    C187    C    0.24998   0.75051   0.83543   1.000
    C188    C    0.74999   0.75051   0.83543   1.000
    C189    C    0.24999   0.96785   0.98000   1.000
    C190    C    0.75002   0.96785   0.98000   1.000
    C191    C    0.25001   0.16416   0.19200   1.000
    C192    C    0.75002   0.16416   0.19200   1.000
    C193    C    0.25000   0.09280   0.14476   1.000
    C194    C    0.75001   0.09280   0.14476   1.000
    C195    C    0.25001   0.10541   0.06785   1.000
    C196    C    0.75005   0.26311   0.08815   1.000
    C197    C    0.25004   0.24947   0.16454   1.000
    C198    C    0.75004   0.24947   0.16454   1.000
    C199    C    0.25000   0.03213   0.01995   1.000
    C200    C    0.75002   0.03213   0.01995   1.000
    C201    C    0.25001   0.66422   0.30700   1.000
    C202    C    0.75002   0.66422   0.30700   1.000
    C203    C    0.25000   0.59285   0.35521   1.000
    C204    C    0.75001   0.59285   0.35521   1.000
    C205    C    0.25001   0.60543   0.43211   1.000
    C206    C    0.75002   0.60543   0.43211   1.000
    C207    C    0.25003   0.69150   0.46001   1.000
    C208    C    0.75004   0.69150   0.46001   1.000
    C209    C    0.25004   0.76313   0.41170   1.000
    C210    C    0.75005   0.76313   0.41170   1.000
    C211    C    0.25003   0.74952   0.33539   1.000
    C212    C    0.75004   0.74952   0.33539   1.000
    C213    C    0.25000   0.53212   0.48002   1.000
    C214    C    0.75002   0.53212   0.48002   1.000
    C215    C    0.25000   0.33575   0.69291   1.000
    C216    C    0.75001   0.33575   0.69291   1.000
    C217    C    0.25001   0.40713   0.64470   1.000
    C218    C    0.75002   0.40713   0.64470   1.000
    C219    C    0.25000   0.39455   0.56786   1.000
    C220    C    0.75001   0.39455   0.56786   1.000
    C221    C    0.24998   0.30847   0.53996   1.000
    C222    C    0.74999   0.30847   0.53996   1.000
    C223    C    0.24997   0.23684   0.58818   1.000
    C224    C    0.74998   0.23684   0.58818   1.000
    C225    C    0.24998   0.25045   0.66450   1.000
    C226    C    0.74999   0.25045   0.66450   1.000
    C227    C    0.25000   0.46785   0.51995   1.000
    C228    C    0.75001   0.46785   0.51995   1.000
    N229    N    0.34518   0.55336   0.09246   1.000
    N230    N    0.84519   0.55336   0.09246   1.000
    N231    N    0.34518   0.44655   0.90750   1.000
    N232    N    0.84519   0.44655   0.90750   1.000
    N233    N    0.15483   0.94653   0.59241   1.000
    N234    N    0.65484   0.94653   0.59241   1.000
    N235    N    0.15482   0.05350   0.40755   1.000
    N236    N    0.65483   0.05350   0.40755   1.000
    N237    N    0.84519   0.05344   0.40756   1.000
    N238    N    0.34518   0.94647   0.59242   1.000
    N239    N    0.84519   0.94647   0.59242   1.000
loop_
    _geom_bond_atom_site_label_1
    _geom_bond_atom_site_label_2
    _geom_bond_distance
    _geom_bond_site_symmetry_2
    _ccdc_geom_bond_type
    H66    C183      1.09012  1_554   S
    H67    C184      1.09012  1_554   S
    C200   C92       1.41727      .   S
    C200   C190      1.22039  1_544   S
    C199   C195      1.41727      .   S
    C199   C189      1.22039  1_544   S
    C93    C195      1.40820      .   S
    C93    C95       1.40066      .   S
    C93    H72       1.09029  1_554   S
    C94    C92       1.40820      .   S
    C94    C196      1.40066      .   S
    C94    H73       1.09029  1_554   S
    H40    C147      1.08963      .   S
    H41    C148      1.08962      .   S
    H1     C89       1.08962      .   S
    H0     C88       1.08961      .   S
    H42    C149      1.08807      .   S
    H43    C150      1.08807      .   S
    H3     C91       1.08805      .   S
    H2     C90       1.08805      .   S
    C92    C194      1.41013      .   S
    C195   C193      1.41013      .   S
    C147   C149      1.38975      .   S
    C147   N126      1.34605      .   S
    C148   C150      1.38975      .   S
    C148   N127      1.34603      .   S
    C88    C90       1.38972      .   S
    C88    N229      1.34606      .   S
    C89    C91       1.38972      .   S
    C89    N230      1.34604      .   S
    C149   C151      1.40538      .   S
    C150   C152      1.40537      .   S
    C91    C97       1.40538      .   S
    C90    C96       1.40538      .   S
    C95    C197      1.40303      .   S
    C196   C198      1.40303      .   S
    N229   C100      1.34617      .   S
    N230   C101      1.34621      .   S
    N126   C155      1.34617      .   S
    N127   C156      1.34619      .   S
    C151   C97       1.48374  1_455   S
    C151   C153      1.40542      .   S
    C97    C99       1.40545      .   S
    C96    C152      1.48421      .   S
    C96    C98       1.40544      .   S
    C152   C154      1.40542      .   S
    C100   C98       1.38838      .   S
    C100   H6        1.08985      .   S
    C101   C99       1.38835      .   S
    C101   H7        1.08984      .   S
    C156   C154      1.38833      .   S
    C156   H47       1.08986      .   S
    C155   C153      1.38835      .   S
    C155   H46       1.08986      .   S
    C99    H5        1.08776      .   S
    C98    H4        1.08774      .   S
    C153   H44       1.08774      .   S
    C154   H45       1.08775      .   S
    C193   H70       1.08838      .   S
    C193   C191      1.38671      .   S
    C194   H71       1.08838      .   S
    C194   C192      1.38671      .   S
    C198   C192      1.39405      .   S
    C198   H75       1.08880      .   S
    C197   C191      1.39405      .   S
    C197   H74       1.08880      .   S
    H81    C212      1.08914      .   S
    H80    C211      1.08914      .   S
    C201   C211      1.40037      .   S
    C201   C203      1.39744      .   S
    C202   C212      1.40037      .   S
    C202   C204      1.39744      .   S
    H76    C203      1.08841      .   S
    H77    C204      1.08841      .   S
    C211   C209      1.40165      .   S
    C212   C210      1.40165      .   S
    H29    C134      1.08776      .   S
    H28    C133      1.08775      .   S
    H53    C164      1.08776      .   S
    H52    C163      1.08775      .   S
    C203   C205      1.41000      .   S
    C204   C206      1.41000      .   S
    H30    C135      1.09022      .   S
    H31    C136      1.08978      .   S
    H54    C165      1.08984      .   S
    H55    C166      1.08983      .   S
    C133   C135      1.38834      .   S
    C133   C131      1.40579  1_565   S
    C134   C136      1.38834      .   S
    C134   C132      1.40580  1_565   S
    C163   C165      1.38838      .   S
    C163   C161      1.40578  1_565   S
    C164   C166      1.38836      .   S
    C164   C162      1.40581  1_565   S
    C135   N235      1.34651  1_565   S
    C136   N236      1.34653  1_565   S
    C166   N237      1.34658  1_565   S
    C165   N128      1.34656  1_565   S
    C132   C161      1.48423      .   S
    C132   C130      1.40544      .   S
    C131   C162      1.48379  1_455   S
    C131   C129      1.40543      .   S
    C162   C160      1.40538      .   S
    C161   C159      1.40539      .   S
    N236   C123      1.34602      .   S
    N235   C122      1.34605      .   S
    N128   C157      1.34606      .   S
    N237   C158      1.34604      .   S
    C209   C207      1.40163      .   S
    C210   C208      1.40163      .   S
    C160   C158      1.38973      .   S
    C160   H51       1.08805      .   S
    C159   C157      1.38973      .   S
    C159   H50       1.08804      .   S
    C130   C123      1.38976      .   S
    C130   H27       1.08309      .   S
    C129   C122      1.38975      .   S
    C129   H26       1.08308      .   S
    C158   H49       1.08964      .   S
    C157   H48       1.08962      .   S
    C122   H24       1.08964      .   S
    C123   H25       1.08965      .   S
    C205   C207      1.40820      .   S
    C205   C213      1.41717      .   S
    C206   C208      1.40820      .   S
    C206   C214      1.41717      .   S
    C208   H79       1.08979      .   S
    C207   H78       1.08979      .   S
    C213   C227      1.21973      .   S
    C214   C228      1.21973      .   S
    H84    C221      1.08979      .   S
    H85    C222      1.08979      .   S
    C228   C220      1.41717      .   S
    C227   C219      1.41717      .   S
    C222   C220      1.40820      .   S
    C222   C224      1.40062      .   S
    C221   C219      1.40820      .   S
    C221   C223      1.40062      .   S
    H56    C167      1.08965      .   S
    H57    C168      1.08965      .   S
    H16    C112      1.08906      .   S
    H17    C113      1.08964      .   S
    H58    C169      1.08806      .   S
    H59    C170      1.08807      .   S
    H19    C115      1.08803      .   S
    H18    C114      1.08804      .   S
    C220   C218      1.40892      .   S
    C219   C217      1.40892      .   S
    C112   C114      1.38974      .   S
    C112   N233      1.34658      .   S
    C167   C169      1.38975      .   S
    C167   N238      1.34603      .   S
    C168   C170      1.38973      .   S
    C168   N239      1.34605      .   S
    C113   C115      1.38973      .   S
    C113   N234      1.34606      .   S
    C169   C171      1.40536      .   S
    C170   C172      1.40536      .   S
    C114   C116      1.40539      .   S
    C115   C117      1.40538      .   S
    C223   C225      1.40183      .   S
    C224   C226      1.40183      .   S
    N234   C121      1.34658  1_565   S
    N233   C120      1.34599  1_565   S
    N238   C175      1.34653  1_565   S
    N239   C176      1.34654  1_565   S
    C116   C172      1.48377  1_455   S
    C116   C118      1.40581  1_565   S
    C172   C174      1.40585  1_565   S
    C171   C117      1.48423      .   S
    C171   C173      1.40585  1_565   S
    C117   C119      1.40581  1_565   S
    C120   C118      1.38844      .   S
    C120   H22       1.09038      .   S
    C121   C119      1.38836      .   S
    C121   H23       1.08984      .   S
    C176   C174      1.38834      .   S
    C176   H63       1.08979      .   S
    C175   C173      1.38834      .   S
    C175   H62       1.08978      .   S
    C118   H20       1.08775      .   S
    C119   H21       1.08776      .   S
    C174   H61       1.08776      .   S
    C173   H60       1.08778      .   S
    C218   H83       1.08882      .   S
    C218   C216      1.39744      .   S
    C217   H82       1.08882      .   S
    C217   C215      1.39743      .   S
    C225   C215      1.40052      .   S
    C225   H86       1.09006      .   S
    C226   C216      1.40052      .   S
    C226   H87       1.09006      .   S
    H69    C188      1.08924      .   S
    H68    C187      1.08924      .   S
    C177   C187      1.39998      .   S
    C177   C179      1.39689      .   S
    C178   C188      1.39998      .   S
    C178   C180      1.39689      .   S
    H65    C180      1.08838      .   S
    H64    C179      1.08838      .   S
    C187   C185      1.40302      .   S
    C188   C186      1.40302      .   S
    H13    C109      1.08750      .   S
    H12    C108      1.08775      .   S
    H36    C143      1.08732      .   S
    H37    C144      1.08732      .   S
    C179   C181      1.40976      .   S
    C180   C182      1.40976      .   S
    H15    C111      1.08984      .   S
    H14    C110      1.08985      .   S
    H39    C146      1.08985      .   S
    H38    C145      1.08985      .   S
    C109   C111      1.38835      .   S
    C109   C107      1.40567      .   S
    C144   C146      1.38842      .   S
    C144   C142      1.40586      .   S
    C143   C145      1.38842      .   S
    C143   C141      1.40587      .   S
    C108   C110      1.38835      .   S
    C108   C106      1.40542      .   S
    C111   N232      1.34619      .   S
    C110   N231      1.34621      .   S
    C145   N124      1.34616      .   S
    C146   N125      1.34615      .   S
    C142   C106      1.48421      .   S
    C142   C140      1.40538      .   S
    C141   C107      1.48374  1_455   S
    C141   C139      1.40538      .   S
    C106   C104      1.40538      .   S
    C107   C105      1.40539      .   S
    N232   C103      1.34601      .   S
    N231   C102      1.34600      .   S
    N125   C138      1.34606      .   S
    N124   C137      1.34605      .   S
    C185   C183      1.40066      .   S
    C186   C184      1.40066      .   S
    C140   C138      1.38975      .   S
    C140   H35       1.08804      .   S
    C139   C137      1.38972      .   S
    C139   H34       1.08805      .   S
    C104   C102      1.38973      .   S
    C104   H10       1.08808      .   S
    C105   C103      1.38975      .   S
    C105   H11       1.08807      .   S
    C137   H32       1.08961      .   S
    C138   H33       1.08961      .   S
    C103   H9        1.08963      .   S
    C102   H8        1.08965      .   S
    C182   C184      1.40833      .   S
    C182   C190      1.41727      .   S
    C181   C183      1.40833      .   S
    C181   C189      1.41727      .   S
