# CIF file generated by openbabel 2.4.90, see http://openbabel.sf.net
data_I
_chemical_name_common ''
_cell_length_a 23.037
_cell_length_b 15.262
_cell_length_c 18.164
_cell_angle_alpha 89.982
_cell_angle_beta 90
_cell_angle_gamma 89.902
_space_group_name_H-M_alt 'P 1'
_space_group_name_Hall 'P 1'
loop_
    _symmetry_equiv_pos_as_xyz
    x,y,z
loop_
    _atom_site_label
    _atom_site_type_symbol
    _atom_site_fract_x
    _atom_site_fract_y
    _atom_site_fract_z
    _atom_site_occupancy
    Zn0     Zn   0.75002   0.55192   0.09709   1.000
    Zn1     Zn   0.25000   0.44805   0.90280   1.000
    Zn2     Zn   0.75001   0.44805   0.90280   1.000
    Zn3     Zn   0.25001   0.94801   0.59705   1.000
    Zn4     Zn   0.75001   0.94801   0.59705   1.000
    Zn5     Zn   0.25000   0.05196   0.40290   1.000
    Zn6     Zn   0.75001   0.05196   0.40290   1.000
    Zn7     Zn   0.25001   0.55192   0.09709   1.000
    C8      C    0.25000   0.85124   0.72485   1.000
    C9      C    0.75002   0.85124   0.72485   1.000
    C10     C    0.24995   0.64580   0.94315   1.000
    C11     C    0.74996   0.64580   0.94315   1.000
    C12     C    0.25000   0.14873   0.27511   1.000
    C13     C    0.75001   0.14873   0.27511   1.000
    C14     C    0.25005   0.35418   0.05682   1.000
    C15     C    0.75007   0.35418   0.05682   1.000
    C16     C    0.25001   0.64879   0.22484   1.000
    C17     C    0.75002   0.64879   0.22484   1.000
    C18     C    0.25006   0.85418   0.44312   1.000
    C19     C    0.75007   0.85418   0.44312   1.000
    C20     C    0.25000   0.35119   0.77513   1.000
    C21     C    0.75001   0.35119   0.77513   1.000
    C22     C    0.24995   0.14580   0.55685   1.000
    C23     C    0.74996   0.14580   0.55685   1.000
    O24     O    0.24996   0.63988   0.01302   1.000
    O25     O    0.74997   0.63988   0.01302   1.000
    O26     O    0.24994   0.58236   0.89767   1.000
    O27     O    0.74994   0.58236   0.89767   1.000
    O28     O    0.25001   0.93343   0.70593   1.000
    O29     O    0.75001   0.93343   0.70593   1.000
    O30     O    0.25001   0.78838   0.68103   1.000
    O31     O    0.75001   0.78838   0.68103   1.000
    O32     O    0.25005   0.36009   0.98695   1.000
    O33     O    0.75006   0.36009   0.98695   1.000
    O34     O    0.25008   0.41762   0.10230   1.000
    O35     O    0.75008   0.41762   0.10230   1.000
    O36     O    0.25000   0.06654   0.29404   1.000
    O37     O    0.75001   0.06654   0.29404   1.000
    O38     O    0.25001   0.21159   0.31894   1.000
    O39     O    0.75002   0.21159   0.31894   1.000
    O40     O    0.25005   0.86005   0.51297   1.000
    O41     O    0.75006   0.86005   0.51297   1.000
    O42     O    0.25007   0.91765   0.39764   1.000
    O43     O    0.75008   0.91765   0.39764   1.000
    O44     O    0.25000   0.56659   0.20595   1.000
    O45     O    0.75001   0.56659   0.20595   1.000
    O46     O    0.25001   0.71166   0.18099   1.000
    O47     O    0.75002   0.71166   0.18099   1.000
    O48     O    0.24996   0.13992   0.48700   1.000
    O49     O    0.74997   0.13992   0.48700   1.000
    O50     O    0.24994   0.08233   0.60233   1.000
    O51     O    0.74995   0.08233   0.60233   1.000
    O52     O    0.25001   0.43338   0.79400   1.000
    O53     O    0.75002   0.43338   0.79401   1.000
    O54     O    0.25000   0.28832   0.81898   1.000
    O55     O    0.75001   0.28832   0.81898   1.000
loop_
    _geom_bond_atom_site_label_1
    _geom_bond_atom_site_label_2
    _geom_bond_distance
    _geom_bond_site_symmetry_2
    _ccdc_geom_bond_type
    O25    Zn0       2.03291      .   S
    O25    C11       1.27230  1_554   S
    O24    Zn7       2.03291      .   S
    O24    C10       1.27230  1_554   S
    C15    O35       1.27295      .   S
    C15    O33       1.27230  1_554   S
    C14    O34       1.27295      .   S
    C14    O32       1.27230  1_554   S
    Zn0    O35       2.05187      .   S
    Zn0    O45       1.99004      .   S
    Zn7    O34       2.05187      .   S
    Zn7    O44       1.99004      .   S
    O46    C16       1.24685      .   S
    O47    C17       1.24685      .   S
    O44    C16       1.30064      .   S
    O45    C17       1.30064      .   S
    C12    O36       1.30055      .   S
    C12    O38       1.24691      .   S
    C13    O37       1.30055      .   S
    C13    O39       1.24691      .   S
    O36    Zn5       1.98974      .   S
    O37    Zn6       1.98974      .   S
    O43    Zn6       2.05218  1_565   S
    O43    C19       1.27291      .   S
    O42    Zn5       2.05218  1_565   S
    O42    C18       1.27291      .   S
    Zn5    O48       2.03395      .   S
    Zn6    O49       2.03396      .   S
    C19    O41       1.27195      .   S
    C18    O40       1.27195      .   S
    O48    C22       1.27195      .   S
    O49    C23       1.27195      .   S
    O41    Zn4       2.03367      .   S
    O40    Zn3       2.03367      .   S
    C23    O51       1.27291      .   S
    C22    O50       1.27291      .   S
    Zn4    O51       2.05220  1_565   S
    Zn4    O29       1.99010      .   S
    Zn3    O50       2.05220  1_565   S
    Zn3    O28       1.99010      .   S
    O31    C9        1.24679      .   S
    O30    C8        1.24680      .   S
    O28    C8        1.30049      .   S
    O29    C9        1.30049      .   S
    C21    O53       1.30059      .   S
    C21    O55       1.24684      .   S
    C20    O52       1.30055      .   S
    C20    O54       1.24684      .   S
    O52    Zn1       1.98896      .   S
    O53    Zn2       1.98878      .   S
    O26    Zn1       2.05180      .   S
    O26    C10       1.27296      .   S
    O27    Zn2       2.05180      .   S
    O27    C11       1.27296      .   S
    Zn1    O32       2.03401      .   S
    Zn2    O33       2.03400      .   S
