# CIF file generated by openbabel 2.4.90, see http://openbabel.sf.net
data_I
_chemical_name_common ''
_cell_length_a 23.037
_cell_length_b 15.262
_cell_length_c 18.164
_cell_angle_alpha 89.982
_cell_angle_beta 90
_cell_angle_gamma 89.902
_space_group_name_H-M_alt 'P 1'
_space_group_name_Hall 'P 1'
loop_
    _symmetry_equiv_pos_as_xyz
    x,y,z
loop_
    _atom_site_label
    _atom_site_type_symbol
    _atom_site_fract_x
    _atom_site_fract_y
    _atom_site_fract_z
    _atom_site_occupancy
    C0      C    0.25000   0.85124   0.72485   1.000
    C1      C    0.75002   0.85124   0.72485   1.000
    C2      C    0.24995   0.64580   0.94315   1.000
    C3      C    0.74996   0.64580   0.94315   1.000
    C4      C    0.25000   0.14873   0.27511   1.000
    C5      C    0.75001   0.14873   0.27511   1.000
    C6      C    0.25005   0.35418   0.05682   1.000
    C7      C    0.75007   0.35418   0.05682   1.000
    C8      C    0.25001   0.64879   0.22484   1.000
    C9      C    0.75002   0.64879   0.22484   1.000
    C10     C    0.25006   0.85418   0.44312   1.000
    C11     C    0.75007   0.85418   0.44312   1.000
    C12     C    0.25000   0.35119   0.77513   1.000
    C13     C    0.75001   0.35119   0.77513   1.000
    C14     C    0.24995   0.14580   0.55685   1.000
    C15     C    0.74996   0.14580   0.55685   1.000
