# CIF file generated by openbabel 2.4.90, see http://openbabel.sf.net
data_I
_chemical_name_common ''
_cell_length_a 23.037
_cell_length_b 15.262
_cell_length_c 18.164
_cell_angle_alpha 89.982
_cell_angle_beta 90
_cell_angle_gamma 89.902
_space_group_name_H-M_alt 'P 1'
_space_group_name_Hall 'P 1'
loop_
    _symmetry_equiv_pos_as_xyz
    x,y,z
loop_
    _atom_site_label
    _atom_site_type_symbol
    _atom_site_fract_x
    _atom_site_fract_y
    _atom_site_fract_z
    _atom_site_occupancy
    N0      N    0.00001   0.94486   0.59495   1.000
    N1      N    0.50000   0.05511   0.40497   1.000
    N2      N    0.50001   0.55504   0.09499   1.000
    N3      N    0.25000   0.99999   0.99994   1.000
    N4      N    0.00000   0.05511   0.40497   1.000
    N5      N    0.25000   0.49999   0.49997   1.000
    N6      N    0.75002   0.99999   0.99994   1.000
    N7      N    0.00001   0.55504   0.09499   1.000
    N8      N    0.75001   0.49999   0.49997   1.000
    N9      N    0.50001   0.44493   0.90497   1.000
    N10     N    0.00001   0.44493   0.90497   1.000
    N11     N    0.50001   0.94486   0.59496   1.000
    Zr12    Zr   0.75001   0.99999   0.49998   1.000
    O13     O    0.75002   0.82715   0.48184   1.000
    O14     O    0.75002   0.03910   0.30836   1.000
    O15     O    0.75002   0.96087   0.69147   1.000
    O16     O    0.75000   0.17282   0.51811   1.000
    O17     O    0.82441   0.97302   0.54741   1.000
    O18     O    0.67562   0.97303   0.54741   1.000
    O19     O    0.67561   0.02696   0.45254   1.000
    O20     O    0.82441   0.02695   0.45254   1.000
    Zr21    Zr   0.75001   0.49999   0.99998   1.000
    O22     O    0.75002   0.53912   0.19146   1.000
    O23     O    0.75001   0.46086   0.80849   1.000
    O24     O    0.75000   0.67282   0.98184   1.000
    O25     O    0.75003   0.32715   0.01809   1.000
    O26     O    0.67562   0.52692   0.04743   1.000
    O27     O    0.82441   0.52691   0.04743   1.000
    O28     O    0.67562   0.47306   0.95252   1.000
    O29     O    0.82441   0.47305   0.95252   1.000
    Zr30    Zr   0.25000   0.49999   0.99998   1.000
    O31     O    0.25000   0.53912   0.19146   1.000
    O32     O    0.24999   0.67282   0.98184   1.000
    O33     O    0.25001   0.32715   0.01809   1.000
    O34     O    0.25000   0.46086   0.80849   1.000
    O35     O    0.32440   0.52691   0.04743   1.000
    O36     O    0.17561   0.52692   0.04743   1.000
    O37     O    0.32440   0.47305   0.95252   1.000
    O38     O    0.17561   0.47306   0.95252   1.000
    Zr39    Zr   0.25000   0.99999   0.49998   1.000
    O40     O    0.25000   0.96087   0.69147   1.000
    O41     O    0.25001   0.82715   0.48184   1.000
    O42     O    0.24999   0.17282   0.51811   1.000
    O43     O    0.25000   0.03910   0.30836   1.000
    O44     O    0.17561   0.97303   0.54741   1.000
    O45     O    0.32440   0.97302   0.54741   1.000
    O46     O    0.32440   0.02695   0.45254   1.000
    O47     O    0.17561   0.02695   0.45254   1.000
loop_
    _geom_bond_atom_site_label_1
    _geom_bond_atom_site_label_2
    _geom_bond_distance
    _geom_bond_site_symmetry_2
    _ccdc_geom_bond_type
    Zr12   O13       2.65839      .   S
    N8     O13       5.00397      .   S
    Zr12   O14       3.53120  1_565   S
    N6     O14       5.63420  1_566   S
    Zr12   O15       3.52876      .   S
    N6     O15       5.63495      .   S
    Zr12   O16       2.65835  1_565   S
    N8     O16       5.00399      .   S
    Zr12   O17       1.96122      .   S
    N0     O17       4.15799  1_455   S
    Zr12   O18       1.96242      .   S
    N11    O18       4.15949      .   S
    Zr12   O19       1.96137  1_565   S
    N1     O19       4.15827      .   S
    Zr12   O20       1.96246  1_565   S
    N4     O20       4.15944  1_455   S
    Zr21   O22       3.52919  1_556   S
    N8     O22       5.63530      .   S
    Zr21   O23       3.52933      .   S
    N8     O23       5.63544      .   S
    Zr21   O24       2.65820      .   S
    N6     O24       5.00409      .   S
    Zr21   O25       2.65816  1_556   S
    N6     O25       5.00417  1_566   S
    Zr21   O26       1.96145  1_556   S
    N2     O26       4.15822      .   S
    Zr21   O27       1.96258  1_556   S
    N7     O27       4.15941  1_455   S
    Zr21   O28       1.96267      .   S
    N9     O28       4.15952      .   S
    Zr21   O29       1.96144      .   S
    N10    O29       4.15801  1_455   S
    Zr30   O31       3.52919  1_556   S
    N5     O31       5.63530      .   S
    Zr30   O32       2.65820      .   S
    N3     O32       5.00409      .   S
    Zr30   O33       2.65816  1_556   S
    N3     O33       5.00417  1_566   S
    Zr30   O34       3.52933      .   S
    N5     O34       5.63543      .   S
    Zr30   O35       1.96263  1_556   S
    N2     O35       4.15957      .   S
    Zr30   O36       1.96141  1_556   S
    N7     O36       4.15806      .   S
    Zr30   O37       1.96149      .   S
    N9     O37       4.15817      .   S
    Zr30   O38       1.96262      .   S
    N10    O38       4.15936      .   S
    Zr39   O40       3.52876      .   S
    N3     O40       5.63495      .   S
    Zr39   O41       2.65839      .   S
    N5     O41       5.00397      .   S
    Zr39   O42       2.65836  1_565   S
    N5     O42       5.00399      .   S
    Zr39   O43       3.53120  1_565   S
    N3     O43       5.63420  1_566   S
    Zr39   O44       1.96235      .   S
    N0     O44       4.15931      .   S
    Zr39   O45       1.96129      .   S
    N11    O45       4.15817      .   S
    Zr39   O46       1.96251  1_565   S
    N1     O46       4.15959      .   S
    Zr39   O47       1.96133  1_565   S
    N4     O47       4.15812      .   S
