# CIF file generated by openbabel 2.4.90, see http://openbabel.sf.net
data_I
_chemical_name_common ''
_cell_length_a 23.037
_cell_length_b 15.262
_cell_length_c 18.164
_cell_angle_alpha 89.982
_cell_angle_beta 90
_cell_angle_gamma 89.902
_space_group_name_H-M_alt 'P 1'
_space_group_name_Hall 'P 1'
loop_
    _symmetry_equiv_pos_as_xyz
    x,y,z
loop_
    _atom_site_label
    _atom_site_type_symbol
    _atom_site_fract_x
    _atom_site_fract_y
    _atom_site_fract_z
    _atom_site_occupancy
    Zr0     Zr   0.25001   0.55192   0.09709   1.000
    Zr1     Zr   0.75002   0.55192   0.09709   1.000
    Zr2     Zr   0.25000   0.44805   0.90280   1.000
    Zr3     Zr   0.75001   0.44805   0.90280   1.000
    Zr4     Zr   0.25001   0.94801   0.59705   1.000
    Zr5     Zr   0.75001   0.94801   0.59705   1.000
    Zr6     Zr   0.25000   0.05196   0.40290   1.000
    Zr7     Zr   0.75001   0.05196   0.40290   1.000
    Zr8     Zr   0.25000   0.85124   0.72485   1.000
    Zr9     Zr   0.75002   0.85124   0.72485   1.000
    Zr10    Zr   0.24995   0.64580   0.94315   1.000
    Zr11    Zr   0.74996   0.64580   0.94315   1.000
    Zr12    Zr   0.25000   0.14873   0.27511   1.000
    Zr13    Zr   0.75001   0.14873   0.27511   1.000
    Zr14    Zr   0.25005   0.35418   0.05682   1.000
    Zr15    Zr   0.75007   0.35418   0.05682   1.000
    Zr16    Zr   0.25001   0.64879   0.22484   1.000
    Zr17    Zr   0.75002   0.64879   0.22484   1.000
    Zr18    Zr   0.25006   0.85418   0.44312   1.000
    Zr19    Zr   0.75007   0.85418   0.44312   1.000
    Zr20    Zr   0.25000   0.35119   0.77513   1.000
    Zr21    Zr   0.75001   0.35119   0.77513   1.000
    Zr22    Zr   0.24995   0.14580   0.55685   1.000
    Zr23    Zr   0.74996   0.14580   0.55685   1.000
    Zr24    Zr   0.24996   0.63988   0.01302   1.000
    Zr25    Zr   0.74997   0.63988   0.01302   1.000
    Zr26    Zr   0.24994   0.58236   0.89767   1.000
    Zr27    Zr   0.74994   0.58236   0.89767   1.000
    Zr28    Zr   0.25001   0.93343   0.70593   1.000
    Zr29    Zr   0.75001   0.93343   0.70593   1.000
    Zr30    Zr   0.25001   0.78838   0.68103   1.000
    Zr31    Zr   0.75001   0.78838   0.68103   1.000
    Zr32    Zr   0.25005   0.36009   0.98695   1.000
    Zr33    Zr   0.75006   0.36009   0.98695   1.000
    Zr34    Zr   0.25008   0.41762   0.10230   1.000
    Zr35    Zr   0.75008   0.41762   0.10230   1.000
    Zr36    Zr   0.25000   0.06654   0.29404   1.000
    Zr37    Zr   0.75001   0.06654   0.29404   1.000
    Zr38    Zr   0.25001   0.21159   0.31894   1.000
    Zr39    Zr   0.75002   0.21159   0.31894   1.000
    Zr40    Zr   0.25005   0.86005   0.51297   1.000
    Zr41    Zr   0.75006   0.86005   0.51297   1.000
    Zr42    Zr   0.25007   0.91765   0.39764   1.000
    Zr43    Zr   0.75008   0.91765   0.39764   1.000
    Zr44    Zr   0.25000   0.56659   0.20595   1.000
    Zr45    Zr   0.75001   0.56659   0.20595   1.000
    Zr46    Zr   0.25001   0.71166   0.18099   1.000
    Zr47    Zr   0.75002   0.71166   0.18099   1.000
    Zr48    Zr   0.24996   0.13992   0.48700   1.000
    Zr49    Zr   0.74997   0.13992   0.48700   1.000
    Zr50    Zr   0.24994   0.08233   0.60233   1.000
    Zr51    Zr   0.74995   0.08233   0.60233   1.000
    Zr52    Zr   0.25001   0.43338   0.79400   1.000
    Zr53    Zr   0.75002   0.43338   0.79401   1.000
    Zr54    Zr   0.25000   0.28832   0.81898   1.000
    Zr55    Zr   0.75001   0.28832   0.81898   1.000
    O56     O    0.74999   0.59590   0.05506   1.000
    O57     O    0.74997   0.64284   0.97809   1.000
    O58     O    0.24999   0.59590   0.05506   1.000
    O59     O    0.24996   0.64284   0.97809   1.000
    O60     O    0.75007   0.38590   0.07956   1.000
    O61     O    0.75006   0.35714   0.02189   1.000
    O62     O    0.25006   0.38590   0.07956   1.000
    O63     O    0.25005   0.35714   0.02189   1.000
    O64     O    0.75005   0.48477   0.09970   1.000
    O65     O    0.75001   0.55926   0.15152   1.000
    O66     O    0.25004   0.48477   0.09970   1.000
    O67     O    0.25000   0.55926   0.15152   1.000
    O68     O    0.25001   0.68022   0.20292   1.000
    O69     O    0.75002   0.68022   0.20292   1.000
    O70     O    0.25000   0.60769   0.21540   1.000
    O71     O    0.75001   0.60769   0.21540   1.000
    O72     O    0.25000   0.10764   0.28458   1.000
    O73     O    0.25000   0.18016   0.29703   1.000
    O74     O    0.75001   0.10764   0.28458   1.000
    O75     O    0.75001   0.18016   0.29703   1.000
    O76     O    0.25000   0.05925   0.34847   1.000
    O77     O    0.75001   0.05925   0.34847   1.000
    O78     O    0.75005   0.98481   0.40027   1.000
    O79     O    0.75007   0.88591   0.42038   1.000
    O80     O    0.25004   0.98481   0.40027   1.000
    O81     O    0.25006   0.88591   0.42038   1.000
    O82     O    0.24998   0.09594   0.44495   1.000
    O83     O    0.74999   0.09594   0.44495   1.000
    O84     O    0.75006   0.85711   0.47805   1.000
    O85     O    0.25005   0.85711   0.47805   1.000
    O86     O    0.24996   0.14286   0.52193   1.000
    O87     O    0.74997   0.14286   0.52193   1.000
    O88     O    0.75004   0.90403   0.55501   1.000
    O89     O    0.25003   0.90403   0.55501   1.000
    O90     O    0.74995   0.11406   0.57959   1.000
    O91     O    0.24994   0.11406   0.57959   1.000
    O92     O    0.74998   0.01517   0.59969   1.000
    O93     O    0.75001   0.94072   0.65149   1.000
    O94     O    0.24997   0.01517   0.59969   1.000
    O95     O    0.25001   0.94072   0.65149   1.000
    O96     O    0.75001   0.81981   0.70294   1.000
    O97     O    0.25000   0.81981   0.70294   1.000
    O98     O    0.25001   0.89234   0.71539   1.000
    O99     O    0.75002   0.89234   0.71539   1.000
    O100    O    0.75002   0.39228   0.78457   1.000
    O101    O    0.75001   0.31975   0.79706   1.000
    O102    O    0.25000   0.39228   0.78457   1.000
    O103    O    0.25000   0.31975   0.79706   1.000
    O104    O    0.25000   0.44072   0.84840   1.000
    O105    O    0.75001   0.44072   0.84841   1.000
    O106    O    0.24997   0.51521   0.90024   1.000
    O107    O    0.24994   0.61408   0.92041   1.000
    O108    O    0.74998   0.51521   0.90024   1.000
    O109    O    0.74995   0.61408   0.92041   1.000
    O110    O    0.25002   0.40407   0.94488   1.000
    O111    O    0.75003   0.40407   0.94488   1.000
    N112    N    0.00001   0.94486   0.59495   1.000
    O113    O    0.10122   0.94606   0.59484   1.000
    O114    O    0.89881   0.94605   0.59484   1.000
    N115    N    0.50000   0.05511   0.40497   1.000
    O116    O    0.39880   0.05391   0.40510   1.000
    O117    O    0.60121   0.05392   0.40510   1.000
    N118    N    0.50001   0.55504   0.09499   1.000
    O119    O    0.39880   0.55384   0.09488   1.000
    O120    O    0.60122   0.55385   0.09489   1.000
    N121    N    0.25000   0.99999   0.99994   1.000
    O122    O    0.25002   0.15432   0.03621   1.000
    O123    O    0.24998   0.84566   0.96371   1.000
    O124    O    0.25000   0.07822   0.11675   1.000
    O125    O    0.25000   0.92176   0.88295   1.000
    N126    N    0.00000   0.05511   0.40497   1.000
    O127    O    0.89880   0.05391   0.40510   1.000
    O128    O    0.10121   0.05392   0.40510   1.000
    N129    N    0.25000   0.49999   0.49997   1.000
    O130    O    0.25002   0.65432   0.46369   1.000
    O131    O    0.25001   0.57825   0.38295   1.000
    O132    O    0.25000   0.42173   0.61700   1.000
    O133    O    0.24998   0.34565   0.53624   1.000
    N134    N    0.75002   0.99999   0.99994   1.000
    O135    O    0.75002   0.07822   0.11675   1.000
    O136    O    0.75004   0.15432   0.03621   1.000
    O137    O    0.74999   0.84566   0.96371   1.000
    O138    O    0.75002   0.92176   0.88295   1.000
    N139    N    0.00001   0.55504   0.09499   1.000
    O140    O    0.89880   0.55384   0.09488   1.000
    O141    O    0.10121   0.55385   0.09489   1.000
    N142    N    0.75001   0.49999   0.49997   1.000
    O143    O    0.74999   0.34565   0.53624   1.000
    O144    O    0.75002   0.57825   0.38295   1.000
    O145    O    0.75001   0.42173   0.61700   1.000
    O146    O    0.75004   0.65432   0.46369   1.000
    N147    N    0.50001   0.44493   0.90497   1.000
    O148    O    0.39880   0.44612   0.90506   1.000
    O149    O    0.60122   0.44613   0.90506   1.000
    N150    N    0.00001   0.44493   0.90497   1.000
    O151    O    0.89881   0.44612   0.90506   1.000
    O152    O    0.10121   0.44613   0.90506   1.000
    N153    N    0.50001   0.94486   0.59496   1.000
    O154    O    0.60122   0.94606   0.59484   1.000
    O155    O    0.39880   0.94605   0.59485   1.000
loop_
    _geom_bond_atom_site_label_1
    _geom_bond_atom_site_label_2
    _geom_bond_distance
    _geom_bond_site_symmetry_2
    _ccdc_geom_bond_type
    Zr25   O56       1.01646      .   S
    Zr1    O56       1.01646      .   S
    Zr25   O57       0.63615  1_554   S
    Zr11   O57       0.63615      .   S
    Zr24   O58       1.01646      .   S
    Zr0    O58       1.01646      .   S
    Zr24   O59       0.63615  1_554   S
    Zr10   O59       0.63615      .   S
    Zr15   O60       0.63647      .   S
    Zr35   O60       0.63647      .   S
    Zr15   O61       0.63615      .   S
    Zr33   O61       0.63615  1_556   S
    Zr14   O62       0.63647      .   S
    Zr34   O62       0.63647      .   S
    Zr14   O63       0.63615      .   S
    Zr32   O63       0.63615  1_556   S
    Zr1    O64       1.02593      .   S
    Zr35   O64       1.02593      .   S
    Zr1    O65       0.99502      .   S
    Zr45   O65       0.99502      .   S
    Zr0    O66       1.02593      .   S
    Zr34   O66       1.02593      .   S
    Zr0    O67       0.99502      .   S
    Zr44   O67       0.99502      .   S
    Zr46   O68       0.62342      .   S
    Zr16   O68       0.62342      .   S
    Zr47   O69       0.62342      .   S
    Zr17   O69       0.62342      .   S
    Zr44   O70       0.65032      .   S
    Zr16   O70       0.65032      .   S
    Zr45   O71       0.65032      .   S
    Zr17   O71       0.65032      .   S
    Zr12   O72       0.65028      .   S
    Zr36   O72       0.65028      .   S
    Zr12   O73       0.62345      .   S
    Zr38   O73       0.62345      .   S
    Zr13   O74       0.65028      .   S
    Zr37   O74       0.65028      .   S
    Zr13   O75       0.62345      .   S
    Zr39   O75       0.62345      .   S
    Zr36   O76       0.99487      .   S
    Zr6    O76       0.99487      .   S
    Zr37   O77       0.99487      .   S
    Zr7    O77       0.99487      .   S
    Zr43   O78       1.02609      .   S
    Zr7    O78       1.02609  1_545   S
    Zr43   O79       0.63646      .   S
    Zr19   O79       0.63646      .   S
    Zr42   O80       1.02609      .   S
    Zr6    O80       1.02609  1_545   S
    Zr42   O81       0.63646      .   S
    Zr18   O81       0.63646      .   S
    Zr6    O82       1.01697      .   S
    Zr48   O82       1.01697      .   S
    Zr7    O83       1.01698      .   S
    Zr49   O83       1.01698      .   S
    Zr19   O84       0.63597      .   S
    Zr41   O84       0.63597      .   S
    Zr18   O85       0.63597      .   S
    Zr40   O85       0.63597      .   S
    Zr48   O86       0.63597      .   S
    Zr22   O86       0.63597      .   S
    Zr49   O87       0.63597      .   S
    Zr23   O87       0.63597      .   S
    Zr41   O88       1.01684      .   S
    Zr5    O88       1.01684      .   S
    Zr40   O89       1.01684      .   S
    Zr4    O89       1.01684      .   S
    Zr23   O90       0.63646      .   S
    Zr51   O90       0.63646      .   S
    Zr22   O91       0.63646      .   S
    Zr50   O91       0.63646      .   S
    Zr5    O92       1.02610  1_565   S
    Zr51   O92       1.02610      .   S
    Zr5    O93       0.99505      .   S
    Zr29   O93       0.99505      .   S
    Zr4    O94       1.02610  1_565   S
    Zr50   O94       1.02610      .   S
    Zr4    O95       0.99505      .   S
    Zr28   O95       0.99505      .   S
    Zr31   O96       0.62340      .   S
    Zr9    O96       0.62340      .   S
    Zr30   O97       0.62340      .   S
    Zr8    O97       0.62340      .   S
    Zr28   O98       0.65025      .   S
    Zr8    O98       0.65025      .   S
    Zr29   O99       0.65024      .   S
    Zr9    O99       0.65024      .   S
    Zr21   O100      0.65030      .   S
    Zr53   O100      0.65030      .   S
    Zr21   O101      0.62342      .   S
    Zr55   O101      0.62342      .   S
    Zr20   O102      0.65027      .   S
    Zr52   O102      0.65027      .   S
    Zr20   O103      0.62342      .   S
    Zr54   O103      0.62342      .   S
    Zr52   O104      0.99448      .   S
    Zr2    O104      0.99448      .   S
    Zr53   O105      0.99439      .   S
    Zr3    O105      0.99439      .   S
    Zr26   O106      1.02590      .   S
    Zr2    O106      1.02590      .   S
    Zr26   O107      0.63648      .   S
    Zr10   O107      0.63648      .   S
    Zr27   O108      1.02590      .   S
    Zr3    O108      1.02590      .   S
    Zr27   O109      0.63648      .   S
    Zr11   O109      0.63648      .   S
    Zr2    O110      1.01700      .   S
    Zr32   O110      1.01700      .   S
    Zr3    O111      1.01700      .   S
    Zr33   O111      1.01700      .   S
    N112   O113      2.33150      .   S
    Zr4    O113      3.42808      .   S
    N112   O114      2.33150  1_455   S
    Zr5    O114      3.42809      .   S
    N115   O116      2.33161      .   S
    Zr6    O116      3.42817      .   S
    N115   O117      2.33160      .   S
    Zr7    O117      3.42819      .   S
    N118   O119      2.33160      .   S
    Zr0    O119      3.42818      .   S
    N118   O120      2.33161      .   S
    Zr1    O120      3.42821      .   S
    N121   O122      2.44600  1_566   S
    Zr14   O122      3.07328      .   S
    N121   O123      2.44575      .   S
    Zr10   O123      3.07317      .   S
    N121   O124      2.43492  1_566   S
    Zr12   O124      3.07157      .   S
    N121   O125      2.43774      .   S
    Zr8    O125      3.06703      .   S
    N126   O127      2.33150  1_455   S
    Zr7    O127      3.42808      .   S
    N126   O128      2.33149      .   S
    Zr6    O128      3.42810      .   S
    N129   O130      2.44570      .   S
    Zr18   O130      3.07287      .   S
    N129   O131      2.43790      .   S
    Zr16   O131      3.06667      .   S
    N129   O132      2.43789      .   S
    Zr20   O132      3.06718      .   S
    N129   O133      2.44566      .   S
    Zr22   O133      3.07296      .   S
    N134   O135      2.43492  1_566   S
    Zr13   O135      3.07157      .   S
    N134   O136      2.44600  1_566   S
    Zr15   O136      3.07328      .   S
    N134   O137      2.44575      .   S
    Zr11   O137      3.07317      .   S
    N134   O138      2.43774      .   S
    Zr9    O138      3.06703      .   S
    N139   O140      2.33148  1_455   S
    Zr1    O140      3.42806      .   S
    N139   O141      2.33150      .   S
    Zr0    O141      3.42810      .   S
    N142   O143      2.44566      .   S
    Zr23   O143      3.07296      .   S
    N142   O144      2.43790      .   S
    Zr17   O144      3.06667      .   S
    N142   O145      2.43789      .   S
    Zr21   O145      3.06718      .   S
    N142   O146      2.44570      .   S
    Zr19   O146      3.07287      .   S
    N147   O148      2.33161      .   S
    Zr2    O148      3.42822      .   S
    N147   O149      2.33159      .   S
    Zr3    O149      3.42818      .   S
    N150   O151      2.33150  1_455   S
    Zr3    O151      3.42812      .   S
    N150   O152      2.33148      .   S
    Zr2    O152      3.42808      .   S
    N153   O154      2.33161      .   S
    Zr5    O154      3.42818      .   S
    N153   O155      2.33160      .   S
    Zr4    O155      3.42819      .   S
