# CIF file generated by openbabel 2.4.90, see http://openbabel.sf.net
data_I
_chemical_name_common ''
_cell_length_a 13.959
_cell_length_b 14.282
_cell_length_c 14.294
_cell_angle_alpha 97.176
_cell_angle_beta 106.298
_cell_angle_gamma 106.781
_space_group_name_H-M_alt 'P 1'
_space_group_name_Hall 'P 1'
loop_
    _symmetry_equiv_pos_as_xyz
    x,y,z
loop_
    _atom_site_label
    _atom_site_type_symbol
    _atom_site_fract_x
    _atom_site_fract_y
    _atom_site_fract_z
    _atom_site_occupancy
    Zr0     Zr   0.63956   0.33761   0.62570   1.000
    Zr1     Zr   0.86114   0.37487   0.66216   1.000
    Zr2     Zr   0.36045   0.66238   0.37428   1.000
    Zr3     Zr   0.13887   0.62513   0.33783   1.000
    O4      O    0.75035   0.35624   0.64393   1.000
    O5      O    0.24966   0.64376   0.35605   1.000
    N6      N    0.24642   0.64007   0.85618   1.000
    O7      O    0.18817   0.62769   0.05969   1.000
    O8      O    0.20775   0.63818   0.63588   1.000
    O9      O    0.30685   0.65254   0.65281   1.000
    O10     O    0.28822   0.64826   0.07690   1.000
    N11     N    0.74685   0.85624   0.63996   1.000
    O12     O    0.78855   0.07709   0.64786   1.000
    O13     O    0.68852   0.05947   0.62766   1.000
    O14     O    0.70854   0.63595   0.63890   1.000
    O15     O    0.80768   0.65337   0.65290   1.000
    N16     N    0.75359   0.35993   0.14380   1.000
    O17     O    0.81184   0.37231   0.94029   1.000
    O18     O    0.71179   0.35174   0.92308   1.000
    O19     O    0.79226   0.36182   0.36410   1.000
    O20     O    0.69315   0.34746   0.34717   1.000
    N21     N    0.25022   0.35824   0.64150   1.000
    O22     O    0.09281   0.36747   0.65165   1.000
    O23     O    0.40770   0.34798   0.63262   1.000
    N24     N    0.74979   0.64176   0.35848   1.000
    O25     O    0.90721   0.63253   0.34834   1.000
    O26     O    0.59231   0.65202   0.36736   1.000
    N27     N    0.25316   0.14376   0.36003   1.000
    O28     O    0.31149   0.94053   0.37232   1.000
    O29     O    0.19233   0.34662   0.34709   1.000
    O30     O    0.21146   0.92291   0.35213   1.000
    O31     O    0.29147   0.36405   0.36109   1.000
loop_
    _geom_bond_atom_site_label_1
    _geom_bond_atom_site_label_2
    _geom_bond_distance
    _geom_bond_site_symmetry_2
    _ccdc_geom_bond_type
    Zr0    O4        1.43154      .   S
    Zr1    O4        1.43154      .   S
    Zr2    O5        1.43153      .   S
    Zr3    O5        1.43153      .   S
    N6     O7        3.24460  1_556   S
    Zr3    O7        4.22356      .   S
    N6     O8        3.03715      .   S
    Zr3    O8        4.06314      .   S
    N6     O9        3.25773      .   S
    Zr2    O9        4.26397      .   S
    N6     O10       3.02377  1_556   S
    Zr2    O10       4.04833      .   S
    N11    O12       3.01902  1_565   S
    Zr1    O12       4.04147      .   S
    N11    O13       3.24503  1_565   S
    Zr0    O13       4.22295      .   S
    N11    O14       3.03267      .   S
    Zr0    O14       4.05527      .   S
    N11    O15       3.25820      .   S
    Zr1    O15       4.26449      .   S
    N16    O17       3.24460  1_554   S
    Zr1    O17       4.22355      .   S
    N16    O18       3.02377  1_554   S
    Zr0    O18       4.04833      .   S
    N16    O19       3.03715      .   S
    Zr1    O19       4.06315      .   S
    N16    O20       3.25773      .   S
    Zr0    O20       4.26397      .   S
    N21    O22       2.28209      .   S
    Zr1    O22       3.31026  1_655   S
    N21    O23       2.28215      .   S
    Zr0    O23       3.31044      .   S
    N24    O25       2.28208      .   S
    Zr3    O25       3.31027  1_455   S
    N24    O26       2.28215      .   S
    Zr2    O26       3.31044      .   S
    N27    O28       3.24503  1_545   S
    Zr2    O28       4.22294      .   S
    N27    O29       3.25820      .   S
    Zr3    O29       4.26450      .   S
    N27    O30       3.01902  1_545   S
    Zr3    O30       4.04145      .   S
    N27    O31       3.03267      .   S
    Zr2    O31       4.05527      .   S
