# CIF file generated by openbabel 2.4.90, see http://openbabel.sf.net
data_I
_chemical_name_common ''
_cell_length_a 13.959
_cell_length_b 14.282
_cell_length_c 14.294
_cell_angle_alpha 97.176
_cell_angle_beta 106.298
_cell_angle_gamma 106.781
_space_group_name_H-M_alt 'P 1'
_space_group_name_Hall 'P 1'
loop_
    _symmetry_equiv_pos_as_xyz
    x,y,z
loop_
    _atom_site_label
    _atom_site_type_symbol
    _atom_site_fract_x
    _atom_site_fract_y
    _atom_site_fract_z
    _atom_site_occupancy
    C0      C    0.63956   0.33761   0.62570   1.000
    C1      C    0.86114   0.37487   0.66216   1.000
    C2      C    0.36045   0.66238   0.37428   1.000
    C3      C    0.13887   0.62513   0.33783   1.000
    C4      C    0.34912   0.49344   0.58987   1.000
    C5      C    0.51833   0.98286   0.58353   1.000
    C6      C    0.51885   0.47509   0.58200   1.000
    C7      C    0.52907   0.32081   0.27534   1.000
    C8      C    0.56551   0.33623   0.10566   1.000
    C9      C    0.27900   0.20935   0.67877   1.000
    C10     C    0.55073   0.81198   0.59351   1.000
    C11     C    0.45052   0.20109   0.66221   1.000
    C12     C    0.15260   0.40863   0.50590   1.000
    C13     C    0.98110   0.41549   0.01450   1.000
    C14     C    0.98285   0.41705   0.52395   1.000
    C15     C    0.97233   0.72728   0.67939   1.000
    C16     C    0.93491   0.89622   0.66252   1.000
    C17     C    0.22011   0.32236   0.79049   1.000
    C18     C    0.94927   0.40594   0.18583   1.000
    C19     C    0.04865   0.33926   0.79836   1.000
    C20     C    0.65089   0.50655   0.41011   1.000
    C21     C    0.48168   0.01714   0.41646   1.000
    C22     C    0.48115   0.52491   0.41797   1.000
    C23     C    0.47094   0.67918   0.72464   1.000
    C24     C    0.43450   0.66375   0.89432   1.000
    C25     C    0.72102   0.79066   0.32123   1.000
    C26     C    0.44927   0.18801   0.40647   1.000
    C27     C    0.54949   0.79892   0.33779   1.000
    C28     C    0.84740   0.59136   0.49408   1.000
    C29     C    0.01891   0.58451   0.98549   1.000
    C30     C    0.01715   0.58295   0.47603   1.000
    C31     C    0.02768   0.27272   0.32060   1.000
    C32     C    0.06510   0.10378   0.33747   1.000
    C33     C    0.77990   0.67764   0.20950   1.000
    C34     C    0.05074   0.59406   0.81416   1.000
    C35     C    0.95136   0.66075   0.20163   1.000
    C36     C    0.69461   0.33677   0.34262   1.000
    C37     C    0.70368   0.16252   0.62620   1.000
    C38     C    0.30009   0.35329   0.63702   1.000
    C39     C    0.70739   0.33977   0.44892   1.000
    C40     C    0.72147   0.89402   0.63542   1.000
    C41     C    0.68876   0.05561   0.62419   1.000
    C42     C    0.73022   0.35121   0.18219   1.000
    C43     C    0.36776   0.42727   0.60680   1.000
    C44     C    0.59628   0.97510   0.60325   1.000
    C45     C    0.46217   0.41747   0.60139   1.000
    C46     C    0.60534   0.33003   0.26512   1.000
    C47     C    0.62517   0.33827   0.17468   1.000
    C48     C    0.33004   0.27027   0.65749   1.000
    C49     C    0.61429   0.88350   0.60924   1.000
    C50     C    0.42483   0.26473   0.64825   1.000
    C51     C    0.80677   0.65835   0.66431   1.000
    C52     C    0.79595   0.37282   0.83693   1.000
    C53     C    0.20033   0.36281   0.64636   1.000
    C54     C    0.79428   0.55202   0.66216   1.000
    C55     C    0.77855   0.36379   0.10554   1.000
    C56     C    0.81076   0.37473   0.94360   1.000
    C57     C    0.77022   0.81800   0.64840   1.000
    C58     C    0.13340   0.39243   0.57212   1.000
    C59     C    0.90331   0.39575   0.02314   1.000
    C60     C    0.03895   0.39806   0.58171   1.000
    C61     C    0.89585   0.73667   0.67025   1.000
    C62     C    0.87547   0.82667   0.66117   1.000
    C63     C    0.16967   0.34318   0.72941   1.000
    C64     C    0.88561   0.39001   0.11495   1.000
    C65     C    0.07490   0.35259   0.73472   1.000
    C66     C    0.30539   0.66322   0.65736   1.000
    C67     C    0.29633   0.83748   0.37378   1.000
    C68     C    0.69994   0.64673   0.36300   1.000
    C69     C    0.29262   0.66024   0.55107   1.000
    C70     C    0.27854   0.10598   0.36457   1.000
    C71     C    0.31125   0.94439   0.37579   1.000
    C72     C    0.26979   0.64878   0.81779   1.000
    C73     C    0.63223   0.57271   0.39315   1.000
    C74     C    0.40373   0.02490   0.39674   1.000
    C75     C    0.53784   0.58253   0.39859   1.000
    C76     C    0.39467   0.66996   0.73487   1.000
    C77     C    0.37483   0.66172   0.82530   1.000
    C78     C    0.66996   0.72972   0.34248   1.000
    C79     C    0.38572   0.11650   0.39074   1.000
    C80     C    0.57519   0.73528   0.35176   1.000
    C81     C    0.19324   0.34165   0.33568   1.000
    C82     C    0.20406   0.62718   0.16305   1.000
    C83     C    0.79966   0.63716   0.35361   1.000
    C84     C    0.20573   0.44797   0.33781   1.000
    C85     C    0.22146   0.63620   0.89445   1.000
    C86     C    0.18925   0.62526   0.05638   1.000
    C87     C    0.22979   0.18200   0.35158   1.000
    C88     C    0.86662   0.60759   0.42787   1.000
    C89     C    0.09670   0.60424   0.97685   1.000
    C90     C    0.96105   0.60193   0.41827   1.000
    C91     C    0.10416   0.26332   0.32973   1.000
    C92     C    0.12454   0.17332   0.33882   1.000
    C93     C    0.83035   0.65685   0.27059   1.000
    C94     C    0.11440   0.60999   0.88504   1.000
    C95     C    0.92510   0.64740   0.26526   1.000
    C96     C    0.79919   0.01839   0.65225   1.000
    C97     C    0.80336   0.35139   0.30267   1.000
    C98     C    0.70058   0.34664   0.98195   1.000
    C99     C    0.69754   0.69699   0.64941   1.000
    C100    C    0.20082   0.98161   0.34773   1.000
    C101    C    0.19665   0.64861   0.69732   1.000
    C102    C    0.29943   0.65336   0.01803   1.000
    C103    C    0.30246   0.30301   0.35057   1.000
    C104    C    0.49082   0.33783   0.62178   1.000
    C105    C    0.00965   0.37853   0.66143   1.000
    C106    C    0.50919   0.66216   0.37820   1.000
    C107    C    0.99036   0.62148   0.33856   1.000
    C108    C    0.62081   0.18778   0.60504   1.000
    C109    C    0.62588   0.33235   0.47537   1.000
    C110    C    0.79938   0.22102   0.64936   1.000
    C111    C    0.80071   0.35255   0.50664   1.000
    C112    C    0.87902   0.39452   0.81141   1.000
    C113    C    0.87586   0.52615   0.66953   1.000
    C114    C    0.70041   0.34949   0.77902   1.000
    C115    C    0.70089   0.49369   0.64998   1.000
    C116    C    0.37920   0.81222   0.39494   1.000
    C117    C    0.37413   0.66764   0.52461   1.000
    C118    C    0.20063   0.77898   0.35063   1.000
    C119    C    0.19930   0.64745   0.49334   1.000
    C120    C    0.12098   0.60548   0.18857   1.000
    C121    C    0.12415   0.47385   0.33046   1.000
    C122    C    0.29960   0.65051   0.22096   1.000
    C123    C    0.29912   0.50631   0.35001   1.000
    O124    O    0.94220   0.40562   0.01882   1.000
    O125    O    0.24434   0.63931   0.03721   1.000
    O126    O    0.26044   0.64478   0.95624   1.000
    O127    O    0.89446   0.39288   0.06904   1.000
    O128    O    0.85703   0.38524   0.98337   1.000
    O129    O    0.19665   0.62622   0.10972   1.000
    O130    O    0.14298   0.61475   0.01662   1.000
    O131    O    0.83208   0.37690   0.11024   1.000
    O132    O    0.75439   0.35750   0.14386   1.000
    O133    O    0.73957   0.35522   0.04374   1.000
    O134    O    0.59534   0.33725   0.14017   1.000
    O135    O    0.91744   0.39797   0.15039   1.000
    O136    O    0.16252   0.61633   0.17581   1.000
    O137    O    0.25183   0.63884   0.19201   1.000
    O138    O    0.67770   0.34474   0.17844   1.000
    O139    O    0.61526   0.33415   0.21990   1.000
    O140    O    0.76679   0.35130   0.24243   1.000
    O141    O    0.12993   0.61530   0.26320   1.000
    O142    O    0.93823   0.65408   0.23345   1.000
    O143    O    0.80512   0.66725   0.24004   1.000
    O144    O    0.33003   0.65645   0.29762   1.000
    O145    O    0.56720   0.32542   0.27023   1.000
    O146    O    0.64998   0.33340   0.30387   1.000
    O147    O    0.87773   0.65213   0.26792   1.000
    O148    O    0.95773   0.63444   0.30191   1.000
    O149    O    0.81501   0.64700   0.31210   1.000
    O150    O    0.74899   0.34408   0.32265   1.000
    O151    O    0.06592   0.26802   0.32517   1.000
    O152    O    0.69549   0.76019   0.33186   1.000
    O153    O    0.14870   0.30249   0.33271   1.000
    O154    O    0.11435   0.21832   0.33427   1.000
    O155    O    0.16494   0.46091   0.33414   1.000
    O156    O    0.13151   0.54949   0.33414   1.000
    O157    O    0.19949   0.39481   0.33675   1.000
    O158    O    0.24785   0.32233   0.34313   1.000
    O159    O    0.09482   0.13855   0.33814   1.000
    O160    O    0.56234   0.76710   0.34478   1.000
    O161    O    0.25242   0.47714   0.34391   1.000
    O162    O    0.06462   0.62330   0.33819   1.000
    O163    O    0.16975   0.70205   0.34423   1.000
    O164    O    0.16909   0.63629   0.41559   1.000
    O165    O    0.97571   0.61170   0.37841   1.000
    O166    O    0.17716   0.17766   0.34520   1.000
    O167    O    0.62257   0.73250   0.34712   1.000
    O168    O    0.68495   0.68823   0.35274   1.000
    O169    O    0.70100   0.33827   0.39577   1.000
    O170    O    0.23968   0.04379   0.35615   1.000
    O171    O    0.25604   0.96300   0.36176   1.000
    O172    O    0.32979   0.58435   0.36214   1.000
    O173    O    0.26612   0.24250   0.35108   1.000
    O174    O    0.24848   0.80823   0.36221   1.000
    O175    O    0.25416   0.14399   0.35808   1.000
    O176    O    0.54219   0.69872   0.36498   1.000
    O177    O    0.74980   0.64194   0.35830   1.000
    O178    O    0.83314   0.62237   0.39074   1.000
    O179    O    0.66609   0.60972   0.37808   1.000
    O180    O    0.33213   0.11124   0.37765   1.000
    O181    O    0.30379   0.89093   0.37479   1.000
    O182    O    0.33777   0.82485   0.38436   1.000
    O183    O    0.43482   0.66227   0.37624   1.000
    O184    O    0.36983   0.73730   0.38461   1.000
    O185    O    0.36729   0.66501   0.44944   1.000
    O186    O    0.35749   0.98464   0.38626   1.000
    O187    O    0.52351   0.62235   0.38840   1.000
    O188    O    0.39472   0.07070   0.39374   1.000
    O189    O    0.41750   0.15226   0.39861   1.000
    O190    O    0.58504   0.57762   0.39587   1.000
    O191    O    0.64156   0.53963   0.40163   1.000
    O192    O    0.44270   0.02102   0.40660   1.000
    O193    O    0.50950   0.55372   0.40828   1.000
    O194    O    0.91384   0.60476   0.42307   1.000
    O195    O    0.98910   0.59244   0.44715   1.000
    O196    O    0.85701   0.59948   0.46098   1.000
    O197    O    0.66663   0.33606   0.46215   1.000
    O198    O    0.75405   0.34616   0.47778   1.000
    O199    O    0.63272   0.33498   0.55054   1.000
    O200    O    0.24596   0.65385   0.52221   1.000
    O201    O    0.14300   0.40053   0.53901   1.000
    O202    O    0.83092   0.36371   0.58440   1.000
    O203    O    0.01090   0.40755   0.55283   1.000
    O204    O    0.33337   0.66394   0.53784   1.000
    O205    O    0.29901   0.66173   0.60422   1.000
    O206    O    0.08617   0.39524   0.57692   1.000
    O207    O    0.16686   0.37762   0.60924   1.000
    O208    O    0.02430   0.38829   0.62157   1.000
    O209    O    0.49051   0.44628   0.59170   1.000
    O210    O    0.55731   0.97898   0.59339   1.000
    O211    O    0.35844   0.46036   0.59833   1.000
    O212    O    0.58251   0.84774   0.60138   1.000
    O213    O    0.41497   0.42237   0.60410   1.000
    O214    O    0.47650   0.37765   0.61159   1.000
    O215    O    0.60529   0.92930   0.60625   1.000
    O216    O    0.64252   0.01536   0.61372   1.000
    O217    O    0.63018   0.26270   0.61537   1.000
    O218    O    0.66224   0.17515   0.61562   1.000
    O219    O    0.33393   0.39028   0.62191   1.000
    O220    O    0.66788   0.88876   0.62233   1.000
    O221    O    0.56519   0.33772   0.62374   1.000
    O222    O    0.45783   0.30128   0.63501   1.000
    O223    O    0.69622   0.10906   0.62520   1.000
    O224    O    0.74397   0.03700   0.63822   1.000
    O225    O    0.67022   0.41565   0.63784   1.000
    O226    O    0.66998   0.34355   0.70236   1.000
    O227    O    0.75153   0.19177   0.63778   1.000
    O228    O    0.74585   0.85601   0.64191   1.000
    O229    O    0.76033   0.95620   0.64383   1.000
    O230    O    0.25021   0.35805   0.64169   1.000
    O231    O    0.31507   0.31178   0.64726   1.000
    O232    O    0.18500   0.35299   0.68788   1.000
    O233    O    0.37744   0.26750   0.65287   1.000
    O234    O    0.43768   0.23291   0.65523   1.000
    O235    O    0.73388   0.75749   0.64890   1.000
    O236    O    0.82285   0.82234   0.65478   1.000
    O237    O    0.83026   0.29794   0.65576   1.000
    O238    O    0.75216   0.67767   0.65686   1.000
    O239    O    0.74758   0.52286   0.65607   1.000
    O240    O    0.25102   0.65591   0.67734   1.000
    O241    O    0.35003   0.66659   0.69611   1.000
    O242    O    0.30452   0.23981   0.66813   1.000
    O243    O    0.90519   0.86145   0.66185   1.000
    O244    O    0.88566   0.78167   0.66571   1.000
    O245    O    0.93539   0.37670   0.66179   1.000
    O246    O    0.04228   0.36556   0.69807   1.000
    O247    O    0.86850   0.45051   0.66584   1.000
    O248    O    0.87008   0.38470   0.73678   1.000
    O249    O    0.80052   0.60519   0.66323   1.000
    O250    O    0.83507   0.53908   0.66585   1.000
    O251    O    0.85131   0.69751   0.66728   1.000
    O252    O    0.93409   0.73198   0.67482   1.000
    O253    O    0.23322   0.64869   0.75755   1.000
    O254    O    0.43280   0.67457   0.72975   1.000
    O255    O    0.12229   0.34788   0.73207   1.000
    O256    O    0.19489   0.33277   0.75995   1.000
    O257    O    0.06177   0.34592   0.76654   1.000
    O258    O    0.38475   0.66584   0.78008   1.000
    O259    O    0.74818   0.36115   0.80798   1.000
    O260    O    0.83749   0.38367   0.82417   1.000
    O261    O    0.08257   0.60203   0.84960   1.000
    O262    O    0.32231   0.65525   0.82155   1.000
    O263    O    0.24562   0.64249   0.85612   1.000
    O264    O    0.40467   0.66274   0.85981   1.000
    O265    O    0.80336   0.37378   0.89027   1.000
    O266    O    0.16793   0.62310   0.88974   1.000
    O267    O    0.10555   0.60712   0.93094   1.000
    O268    O    0.75567   0.36069   0.96278   1.000
    O269    O    0.05781   0.59438   0.98117   1.000
    O270    O    0.75035   0.35624   0.64393   1.000
    O271    O    0.24966   0.64376   0.35605   1.000
loop_
    _geom_bond_atom_site_label_1
    _geom_bond_atom_site_label_2
    _geom_bond_distance
    _geom_bond_site_symmetry_2
    _ccdc_geom_bond_type
    C13    O124      0.54337      .   S
    C59    O124      0.54337      .   S
    C102   O125      0.86584      .   S
    C86    O125      0.86584      .   S
    C102   O126      0.86950  1_554   S
    C85    O126      0.86950      .   S
    C59    O127      0.70484      .   S
    C64    O127      0.70484      .   S
    C59    O128      0.69245  1_554   S
    C56    O128      0.69245      .   S
    C86    O129      0.73786      .   S
    C82    O129      0.73786      .   S
    C86    O130      0.69245      .   S
    C89    O130      0.69245  1_556   S
    C55    O131      0.69697      .   S
    C64    O131      0.69697      .   S
    C55    O132      0.72152      .   S
    C42    O132      0.72152      .   S
    C55    O133      0.86949      .   S
    C98    O133      0.86949  1_556   S
    C8     O134      0.54441      .   S
    C47    O134      0.54441      .   S
    C64    O135      0.54503      .   S
    C18    O135      0.54503      .   S
    C82    O136      0.63874      .   S
    C120   O136      0.63874      .   S
    C82    O137      0.63832      .   S
    C122   O137      0.63832      .   S
    C47    O138      0.69747      .   S
    C42    O138      0.69747      .   S
    C47    O139      0.70386      .   S
    C46    O139      0.70386      .   S
    C42    O140      0.86870      .   S
    C97    O140      0.86870      .   S
    C120   O141      1.02513      .   S
    C3     O141      1.02513      .   S
    C35    O142      0.54499      .   S
    C95    O142      0.54499      .   S
    C33    O143      0.54477      .   S
    C93    O143      0.54477      .   S
    C122   O144      1.04070      .   S
    C2     O144      1.04070      .   S
    C46    O145      0.54394      .   S
    C7     O145      0.54394      .   S
    C46    O146      0.69259      .   S
    C36    O146      0.69259      .   S
    C95    O147      0.69470      .   S
    C93    O147      0.69470      .   S
    C95    O148      0.67464      .   S
    C107   O148      0.67464      .   S
    C93    O149      0.70183      .   S
    C83    O149      0.70183      .   S
    C97    O150      0.86705      .   S
    C36    O150      0.86705      .   S
    C31    O151      0.54397      .   S
    C91    O151      0.54397      .   S
    C25    O152      0.54478      .   S
    C78    O152      0.54478      .   S
    C91    O153      0.69254      .   S
    C81    O153      0.69254      .   S
    C91    O154      0.70393      .   S
    C92    O154      0.70393      .   S
    C121   O155      0.63835      .   S
    C84    O155      0.63835      .   S
    C121   O156      1.04832      .   S
    C3     O156      1.04832      .   S
    C81    O157      0.73655      .   S
    C84    O157      0.73655      .   S
    C81    O158      0.86709      .   S
    C103   O158      0.86709      .   S
    C32    O159      0.54443      .   S
    C92    O159      0.54443      .   S
    C27    O160      0.54500      .   S
    C80    O160      0.54500      .   S
    C84    O161      0.63897      .   S
    C123   O161      0.63897      .   S
    C3     O162      1.03084      .   S
    C107   O162      1.03084  1_655   S
    C3     O163      1.03945      .   S
    C118   O163      1.03945      .   S
    C3     O164      1.04520      .   S
    C119   O164      1.04520      .   S
    C107   O165      0.67426      .   S
    C90    O165      0.67426      .   S
    C92    O166      0.69747      .   S
    C87    O166      0.69747      .   S
    C78    O167      0.69469      .   S
    C80    O167      0.69469      .   S
    C78    O168      0.70186      .   S
    C68    O168      0.70186      .   S
    C36    O169      0.73644      .   S
    C39    O169      0.73644      .   S
    C100   O170      0.86948  1_565   S
    C70    O170      0.86948      .   S
    C100   O171      0.86585      .   S
    C71    O171      0.86585      .   S
    C123   O172      1.04404      .   S
    C2     O172      1.04404      .   S
    C103   O173      0.86867      .   S
    C87    O173      0.86867      .   S
    C118   O174      0.63845      .   S
    C67    O174      0.63845      .   S
    C87    O175      0.72152      .   S
    C70    O175      0.72152      .   S
    C80    O176      0.67464      .   S
    C106   O176      0.67464      .   S
    C83    O177      0.73900      .   S
    C68    O177      0.73900      .   S
    C83    O178      0.70031      .   S
    C88    O178      0.70031      .   S
    C68    O179      0.70040      .   S
    C73    O179      0.70040      .   S
    C70    O180      0.69697      .   S
    C79    O180      0.69697      .   S
    C67    O181      0.73786      .   S
    C71    O181      0.73786      .   S
    C67    O182      0.63865      .   S
    C116   O182      0.63865      .   S
    C2     O183      1.03105      .   S
    C106   O183      1.03105      .   S
    C2     O184      1.02599      .   S
    C116   O184      1.02599      .   S
    C2     O185      1.04648      .   S
    C117   O185      1.04648      .   S
    C71    O186      0.69248      .   S
    C74    O186      0.69248  1_545   S
    C106   O187      0.67427      .   S
    C75    O187      0.67427      .   S
    C79    O188      0.70495      .   S
    C74    O188      0.70495      .   S
    C79    O189      0.54506      .   S
    C26    O189      0.54506      .   S
    C73    O190      0.69342      .   S
    C75    O190      0.69342      .   S
    C73    O191      0.54390      .   S
    C20    O191      0.54390      .   S
    C74    O192      0.54337      .   S
    C21    O192      0.54337      .   S
    C75    O193      0.54408      .   S
    C22    O193      0.54408      .   S
    C90    O194      0.69341      .   S
    C88    O194      0.69341      .   S
    C90    O195      0.54409      .   S
    C30    O195      0.54409  1_455   S
    C88    O196      0.54381      .   S
    C28    O196      0.54381      .   S
    C39    O197      0.63856      .   S
    C109   O197      0.63856      .   S
    C39    O198      0.63889      .   S
    C111   O198      0.63889      .   S
    C109   O199      1.04649      .   S
    C0     O199      1.04649      .   S
    C119   O200      0.63889      .   S
    C69    O200      0.63889      .   S
    C12    O201      0.54380      .   S
    C58    O201      0.54380      .   S
    C111   O202      1.04520      .   S
    C1     O202      1.04520      .   S
    C14    O203      0.54409  1_655   S
    C60    O203      0.54409      .   S
    C117   O204      0.63855      .   S
    C69    O204      0.63855      .   S
    C69    O205      0.73644      .   S
    C66    O205      0.73644      .   S
    C58    O206      0.69341      .   S
    C60    O206      0.69341      .   S
    C58    O207      0.70032      .   S
    C53    O207      0.70032      .   S
    C60    O208      0.67425      .   S
    C105   O208      0.67425      .   S
    C6     O209      0.54408      .   S
    C45    O209      0.54408      .   S
    C5     O210      0.54337      .   S
    C44    O210      0.54337      .   S
    C4     O211      0.54390      .   S
    C43    O211      0.54390      .   S
    C10    O212      0.54506      .   S
    C49    O212      0.54506      .   S
    C45    O213      0.69342      .   S
    C43    O213      0.69342      .   S
    C45    O214      0.67426      .   S
    C104   O214      0.67426      .   S
    C44    O215      0.70495      .   S
    C49    O215      0.70495      .   S
    C44    O216      0.69247  1_565   S
    C41    O216      0.69247      .   S
    C108   O217      1.02599      .   S
    C0     O217      1.02599      .   S
    C108   O218      0.63865      .   S
    C37    O218      0.63865      .   S
    C43    O219      0.70039      .   S
    C38    O219      0.70039      .   S
    C49    O220      0.69696      .   S
    C40    O220      0.69696      .   S
    C104   O221      1.03106      .   S
    C0     O221      1.03106      .   S
    C104   O222      0.67464      .   S
    C50    O222      0.67464      .   S
    C41    O223      0.73787      .   S
    C37    O223      0.73787      .   S
    C41    O224      0.86585      .   S
    C96    O224      0.86585      .   S
    C0     O225      1.04404      .   S
    C115   O225      1.04404      .   S
    C0     O226      1.04070      .   S
    C114   O226      1.04070      .   S
    C37    O227      0.63845      .   S
    C110   O227      0.63845      .   S
    C40    O228      0.72153      .   S
    C57    O228      0.72153      .   S
    C40    O229      0.86948      .   S
    C96    O229      0.86948  1_545   S
    C38    O230      0.73899      .   S
    C53    O230      0.73899      .   S
    C38    O231      0.70187      .   S
    C48    O231      0.70187      .   S
    C53    O232      0.70183      .   S
    C63    O232      0.70183      .   S
    C50    O233      0.69470      .   S
    C48    O233      0.69470      .   S
    C50    O234      0.54500      .   S
    C11    O234      0.54500      .   S
    C57    O235      0.86867      .   S
    C99    O235      0.86867      .   S
    C57    O236      0.69747      .   S
    C62    O236      0.69747      .   S
    C110   O237      1.03946      .   S
    C1     O237      1.03946      .   S
    C99    O238      0.86709      .   S
    C51    O238      0.86709      .   S
    C115   O239      0.63897      .   S
    C54    O239      0.63897      .   S
    C66    O240      0.86705      .   S
    C101   O240      0.86705      .   S
    C66    O241      0.69259      .   S
    C76    O241      0.69259      .   S
    C48    O242      0.54478      .   S
    C9     O242      0.54478      .   S
    C62    O243      0.54443      .   S
    C16    O243      0.54443      .   S
    C62    O244      0.70393      .   S
    C61    O244      0.70393      .   S
    C105   O245      1.03083  1_455   S
    C1     O245      1.03083      .   S
    C105   O246      0.67465      .   S
    C65    O246      0.67465      .   S
    C1     O247      1.04831      .   S
    C113   O247      1.04831      .   S
    C1     O248      1.02513      .   S
    C112   O248      1.02513      .   S
    C54    O249      0.73654      .   S
    C51    O249      0.73654      .   S
    C54    O250      0.63836      .   S
    C113   O250      0.63836      .   S
    C51    O251      0.69254      .   S
    C61    O251      0.69254      .   S
    C61    O252      0.54397      .   S
    C15    O252      0.54397      .   S
    C101   O253      0.86870      .   S
    C72    O253      0.86870      .   S
    C23    O254      0.54394      .   S
    C76    O254      0.54394      .   S
    C63    O255      0.69470      .   S
    C65    O255      0.69470      .   S
    C63    O256      0.54476      .   S
    C17    O256      0.54476      .   S
    C65    O257      0.54499      .   S
    C19    O257      0.54499      .   S
    C76    O258      0.70386      .   S
    C77    O258      0.70386      .   S
    C114   O259      0.63832      .   S
    C52    O259      0.63832      .   S
    C112   O260      0.63874      .   S
    C52    O260      0.63874      .   S
    C34    O261      0.54504      .   S
    C94    O261      0.54504      .   S
    C72    O262      0.69747      .   S
    C77    O262      0.69747      .   S
    C72    O263      0.72151      .   S
    C85    O263      0.72151      .   S
    C77    O264      0.54441      .   S
    C24    O264      0.54441      .   S
    C52    O265      0.73786      .   S
    C56    O265      0.73786      .   S
    C94    O266      0.69697      .   S
    C85    O266      0.69697      .   S
    C94    O267      0.70484      .   S
    C89    O267      0.70484      .   S
    C56    O268      0.86584      .   S
    C98    O268      0.86584      .   S
    C89    O269      0.54337      .   S
    C29    O269      0.54337      .   S
    C0     O270      1.43154      .   S
    C1     O270      1.43154      .   S
    C2     O271      1.43153      .   S
    C3     O271      1.43153      .   S
