# CIF file generated by openbabel 2.4.90, see http://openbabel.sf.net
data_I
_chemical_name_common ''
_cell_length_a 14.575
_cell_length_b 14.7
_cell_length_c 26.013
_cell_angle_alpha 90.15
_cell_angle_beta 90.408
_cell_angle_gamma 90.188
_space_group_name_H-M_alt 'P 1'
_space_group_name_Hall 'P 1'
loop_
    _symmetry_equiv_pos_as_xyz
    x,y,z
loop_
    _atom_site_label
    _atom_site_type_symbol
    _atom_site_fract_x
    _atom_site_fract_y
    _atom_site_fract_z
    _atom_site_occupancy
    Zr0     Zr   0.73458   0.55847   0.39300   1.000
    Zr1     Zr   0.73095   0.95272   0.65303   1.000
    Zr2     Zr   0.76530   0.43737   0.89324   1.000
    Zr3     Zr   0.76631   0.04716   0.15302   1.000
    Zr4     Zr   0.26166   0.05806   0.10677   1.000
    Zr5     Zr   0.26940   0.44847   0.84824   1.000
    Zr6     Zr   0.23441   0.93768   0.60688   1.000
    Zr7     Zr   0.23092   0.54735   0.34651   1.000
    Zr8     Zr   0.26307   0.44135   0.60683   1.000
    Zr9     Zr   0.26896   0.04709   0.34710   1.000
    Zr10    Zr   0.23449   0.55873   0.10677   1.000
    Zr11    Zr   0.23378   0.94859   0.84700   1.000
    Zr12    Zr   0.73825   0.93770   0.89321   1.000
    Zr13    Zr   0.72998   0.54696   0.15262   1.000
    Zr14    Zr   0.76562   0.06193   0.39304   1.000
    Zr15    Zr   0.76609   0.45297   0.65340   1.000
    Zr16    Zr   0.75756   0.64558   0.48232   1.000
    Zr17    Zr   0.72422   0.60094   0.59484   1.000
    Zr18    Zr   0.59972   0.62817   0.22374   1.000
    Zr19    Zr   0.60343   0.56262   0.33488   1.000
    Zr20    Zr   0.74017   0.35109   0.98094   1.000
    Zr21    Zr   0.77193   0.39873   0.09386   1.000
    Zr22    Zr   0.89843   0.37080   0.72402   1.000
    Zr23    Zr   0.89664   0.43205   0.83598   1.000
    Zr24    Zr   0.24267   0.14449   0.01932   1.000
    Zr25    Zr   0.27635   0.09668   0.90653   1.000
    Zr26    Zr   0.39881   0.12534   0.27592   1.000
    Zr27    Zr   0.39407   0.06091   0.16430   1.000
    Zr28    Zr   0.25562   0.85152   0.51898   1.000
    Zr29    Zr   0.22455   0.89932   0.40618   1.000
    Zr30    Zr   0.10102   0.86798   0.77584   1.000
    Zr31    Zr   0.10347   0.93360   0.66454   1.000
    Zr32    Zr   0.23893   0.35459   0.51738   1.000
    Zr33    Zr   0.27326   0.39933   0.40502   1.000
    Zr34    Zr   0.39897   0.36813   0.77619   1.000
    Zr35    Zr   0.39417   0.43670   0.66535   1.000
    Zr36    Zr   0.25996   0.64474   0.01899   1.000
    Zr37    Zr   0.22802   0.59691   0.90631   1.000
    Zr38    Zr   0.10072   0.62880   0.27502   1.000
    Zr39    Zr   0.10254   0.56464   0.16346   1.000
    Zr40    Zr   0.75928   0.85203   0.98200   1.000
    Zr41    Zr   0.72413   0.89851   0.09453   1.000
    Zr42    Zr   0.60112   0.87066   0.72398   1.000
    Zr43    Zr   0.60587   0.93377   0.83569   1.000
    Zr44    Zr   0.74031   0.14682   0.48223   1.000
    Zr45    Zr   0.77296   0.10114   0.59494   1.000
    Zr46    Zr   0.89893   0.12912   0.22398   1.000
    Zr47    Zr   0.89674   0.06601   0.33563   1.000
    Zr48    Zr   0.72672   0.66563   0.43674   1.000
    Zr49    Zr   0.79733   0.57303   0.49334   1.000
    Zr50    Zr   0.78849   0.57703   0.62695   1.000
    Zr51    Zr   0.65646   0.55442   0.58224   1.000
    Zr52    Zr   0.63061   0.55370   0.20390   1.000
    Zr53    Zr   0.62862   0.70694   0.21771   1.000
    Zr54    Zr   0.67721   0.60143   0.32016   1.000
    Zr55    Zr   0.60215   0.51535   0.37620   1.000
    Zr56    Zr   0.76942   0.32838   0.93561   1.000
    Zr57    Zr   0.70339   0.42565   0.99105   1.000
    Zr58    Zr   0.70716   0.42328   0.12500   1.000
    Zr59    Zr   0.83988   0.44501   0.08204   1.000
    Zr60    Zr   0.86723   0.44538   0.70445   1.000
    Zr61    Zr   0.86943   0.29204   0.71771   1.000
    Zr62    Zr   0.82237   0.39480   0.82010   1.000
    Zr63    Zr   0.89861   0.47730   0.87818   1.000
    Zr64    Zr   0.26932   0.16803   0.06522   1.000
    Zr65    Zr   0.20716   0.06907   0.00000   1.000
    Zr66    Zr   0.21097   0.07122   0.87536   1.000
    Zr67    Zr   0.34511   0.05152   0.91820   1.000
    Zr68    Zr   0.36768   0.05085   0.29562   1.000
    Zr69    Zr   0.37059   0.20409   0.28240   1.000
    Zr70    Zr   0.32030   0.09808   0.18009   1.000
    Zr71    Zr   0.39481   0.01560   0.12218   1.000
    Zr72    Zr   0.22691   0.82858   0.56434   1.000
    Zr73    Zr   0.29260   0.92622   0.50900   1.000
    Zr74    Zr   0.28978   0.92423   0.37533   1.000
    Zr75    Zr   0.15640   0.94503   0.41785   1.000
    Zr76    Zr   0.13316   0.94231   0.79573   1.000
    Zr77    Zr   0.12881   0.78904   0.78218   1.000
    Zr78    Zr   0.17707   0.89495   0.67981   1.000
    Zr79    Zr   0.10204   0.98009   0.62291   1.000
    Zr80    Zr   0.27023   0.33483   0.56291   1.000
    Zr81    Zr   0.19846   0.42673   0.50630   1.000
    Zr82    Zr   0.20928   0.42300   0.37268   1.000
    Zr83    Zr   0.34055   0.44622   0.41794   1.000
    Zr84    Zr   0.36750   0.44217   0.79622   1.000
    Zr85    Zr   0.37116   0.28900   0.78226   1.000
    Zr86    Zr   0.32040   0.39776   0.67990   1.000
    Zr87    Zr   0.39522   0.48443   0.62417   1.000
    Zr88    Zr   0.23045   0.66745   0.06426   1.000
    Zr89    Zr   0.29681   0.57020   0.00000   1.000
    Zr90    Zr   0.29304   0.57194   0.87541   1.000
    Zr91    Zr   0.15984   0.55085   0.91798   1.000
    Zr92    Zr   0.13262   0.55394   0.29390   1.000
    Zr93    Zr   0.12891   0.70760   0.28217   1.000
    Zr94    Zr   0.17596   0.60486   0.17820   1.000
    Zr95    Zr   0.10149   0.51619   0.12241   1.000
    Zr96    Zr   0.73113   0.82999   0.93607   1.000
    Zr97    Zr   0.79710   0.92596   0.99312   1.000
    Zr98    Zr   0.78852   0.92280   0.12663   1.000
    Zr99    Zr   0.65658   0.94485   0.08201   1.000
    Zr100   Zr   0.63229   0.94534   0.70451   1.000
    Zr101   Zr   0.62938   0.79195   0.71748   1.000
    Zr102   Zr   0.67923   0.89520   0.82034   1.000
    Zr103   Zr   0.60543   0.98026   0.87744   1.000
    Zr104   Zr   0.77284   0.16787   0.43736   1.000
    Zr105   Zr   0.69964   0.07415   0.49209   1.000
    Zr106   Zr   0.70939   0.07703   0.62700   1.000
    Zr107   Zr   0.83992   0.05457   0.58215   1.000
    Zr108   Zr   0.86692   0.05451   0.20434   1.000
    Zr109   Zr   0.87089   0.20793   0.21760   1.000
    Zr110   Zr   0.82317   0.10498   0.32046   1.000
    Zr111   Zr   0.89812   0.01953   0.37724   1.000
    O112    O    0.22491   0.10678   0.00966   1.000
    O113    O    0.27838   0.60747   0.00949   1.000
    O114    O    0.24520   0.65610   0.04162   1.000
    O115    O    0.25599   0.15626   0.04227   1.000
    O116    O    0.23247   0.61309   0.08552   1.000
    O117    O    0.26549   0.11304   0.08600   1.000
    O118    O    0.69035   0.92168   0.08827   1.000
    O119    O    0.80590   0.42187   0.08795   1.000
    O120    O    0.73955   0.41100   0.10943   1.000
    O121    O    0.75632   0.91065   0.11058   1.000
    O122    O    0.32824   0.03683   0.11448   1.000
    O123    O    0.29098   0.07807   0.14343   1.000
    O124    O    0.16799   0.53746   0.11459   1.000
    O125    O    0.20523   0.58179   0.14249   1.000
    O126    O    0.39444   0.03826   0.14324   1.000
    O127    O    0.10202   0.54042   0.14294   1.000
    O128    O    0.71857   0.48512   0.13881   1.000
    O129    O    0.77741   0.98498   0.13982   1.000
    O130    O    0.68030   0.55033   0.17826   1.000
    O131    O    0.81661   0.05084   0.17868   1.000
    O132    O    0.13925   0.58475   0.17083   1.000
    O133    O    0.35718   0.07949   0.17219   1.000
    O134    O    0.61516   0.59094   0.21382   1.000
    O135    O    0.88292   0.09182   0.21416   1.000
    O136    O    0.88491   0.16852   0.22079   1.000
    O137    O    0.61417   0.66756   0.22073   1.000
    O138    O    0.11481   0.66820   0.27859   1.000
    O139    O    0.11667   0.59137   0.28446   1.000
    O140    O    0.38470   0.16471   0.27916   1.000
    O141    O    0.38324   0.08809   0.28577   1.000
    O142    O    0.18177   0.55064   0.32020   1.000
    O143    O    0.31832   0.04897   0.32136   1.000
    O144    O    0.64032   0.58202   0.32752   1.000
    O145    O    0.70589   0.57995   0.35658   1.000
    O146    O    0.85995   0.08550   0.32805   1.000
    O147    O    0.79440   0.08346   0.35675   1.000
    O148    O    0.60279   0.53898   0.35554   1.000
    O149    O    0.89743   0.04277   0.35644   1.000
    O150    O    0.22010   0.48517   0.35959   1.000
    O151    O    0.27937   0.98566   0.36122   1.000
    O152    O    0.24127   0.41117   0.38885   1.000
    O153    O    0.25716   0.91178   0.39075   1.000
    O154    O    0.66836   0.53691   0.38460   1.000
    O155    O    0.83187   0.04073   0.38514   1.000
    O156    O    0.73065   0.61205   0.41487   1.000
    O157    O    0.76923   0.11490   0.41520   1.000
    O158    O    0.30691   0.42278   0.41148   1.000
    O159    O    0.19048   0.92217   0.41201   1.000
    O160    O    0.74214   0.65560   0.45953   1.000
    O161    O    0.75658   0.15734   0.45980   1.000
    O162    O    0.71998   0.11048   0.48716   1.000
    O163    O    0.77744   0.60930   0.48783   1.000
    O164    O    0.21869   0.39066   0.51184   1.000
    O165    O    0.27411   0.88887   0.51399   1.000
    O166    O    0.25458   0.34471   0.54014   1.000
    O167    O    0.24127   0.84005   0.54166   1.000
    O168    O    0.26665   0.38809   0.58487   1.000
    O169    O    0.23066   0.88313   0.58561   1.000
    O170    O    0.80644   0.07785   0.58854   1.000
    O171    O    0.69034   0.57768   0.58854   1.000
    O172    O    0.75636   0.58899   0.61090   1.000
    O173    O    0.74118   0.08908   0.61097   1.000
    O174    O    0.32915   0.46289   0.61550   1.000
    O175    O    0.29174   0.41955   0.64336   1.000
    O176    O    0.16822   0.95888   0.61489   1.000
    O177    O    0.20574   0.91631   0.64334   1.000
    O178    O    0.10275   0.95684   0.64372   1.000
    O179    O    0.39469   0.46056   0.64476   1.000
    O180    O    0.77729   0.51500   0.64017   1.000
    O181    O    0.72017   0.01487   0.64002   1.000
    O182    O    0.68162   0.94903   0.67877   1.000
    O183    O    0.81666   0.44917   0.67892   1.000
    O184    O    0.14027   0.91427   0.67217   1.000
    O185    O    0.35728   0.41723   0.67263   1.000
    O186    O    0.88283   0.40809   0.71423   1.000
    O187    O    0.61670   0.90800   0.71424   1.000
    O188    O    0.61525   0.83130   0.72073   1.000
    O189    O    0.88393   0.33142   0.72086   1.000
    O190    O    0.11491   0.82851   0.77901   1.000
    O191    O    0.11709   0.90514   0.78579   1.000
    O192    O    0.38506   0.32856   0.77923   1.000
    O193    O    0.38324   0.40515   0.78621   1.000
    O194    O    0.18347   0.94545   0.82137   1.000
    O195    O    0.31845   0.44532   0.82223   1.000
    O196    O    0.85950   0.41343   0.82804   1.000
    O197    O    0.79384   0.41608   0.85667   1.000
    O198    O    0.64255   0.91449   0.82802   1.000
    O199    O    0.70874   0.91645   0.85677   1.000
    O200    O    0.60565   0.95701   0.85657   1.000
    O201    O    0.89762   0.45468   0.85708   1.000
    O202    O    0.22238   0.00991   0.86118   1.000
    O203    O    0.28122   0.51020   0.86182   1.000
    O204    O    0.24366   0.08395   0.89094   1.000
    O205    O    0.26053   0.58442   0.89086   1.000
    O206    O    0.67184   0.95898   0.88533   1.000
    O207    O    0.83196   0.45734   0.88571   1.000
    O208    O    0.73469   0.88385   0.91464   1.000
    O209    O    0.76736   0.38287   0.91442   1.000
    O210    O    0.19393   0.57388   0.91214   1.000
    O211    O    0.31073   0.07410   0.91236   1.000
    O212    O    0.75479   0.33973   0.95827   1.000
    O213    O    0.74521   0.84101   0.95903   1.000
    O214    O    0.72178   0.38837   0.98599   1.000
    O215    O    0.77819   0.88900   0.98756   1.000
    N216    N    0.58328   0.58753   0.85565   1.000
    O217    O    0.64940   0.53428   0.86977   1.000
    N218    N    0.41600   0.40873   0.14516   1.000
    O219    O    0.35007   0.46194   0.13075   1.000
    N220    N    0.91123   0.59566   0.22113   1.000
    O221    O    0.98125   0.58341   0.19963   1.000
    O222    O    0.98079   0.60810   0.24015   1.000
    O223    O    0.85081   0.57770   0.19646   1.000
    N224    N    0.23888   0.80327   0.94306   1.000
    O225    O    0.23577   0.72410   0.92962   1.000
    O226    O    0.23566   0.85172   0.90919   1.000
    O227    O    0.24636   0.74184   0.97083   1.000
    N228    N    0.07545   0.91100   0.14160   1.000
    O229    O    0.14308   0.96317   0.12852   1.000
    N230    N    0.92138   0.41310   0.35810   1.000
    O231    O    0.85352   0.46460   0.37127   1.000
    N232    N    0.58193   0.91260   0.35482   1.000
    O233    O    0.64863   0.96556   0.36917   1.000
    N234    N    0.73446   0.69265   0.05677   1.000
    O235    O    0.74318   0.75441   0.02945   1.000
    O236    O    0.73157   0.77165   0.07060   1.000
    O237    O    0.73120   0.64398   0.09053   1.000
    N238    N    0.26344   0.19395   0.44287   1.000
    O239    O    0.26609   0.27275   0.42897   1.000
    O240    O    0.25480   0.25613   0.47011   1.000
    O241    O    0.26698   0.14486   0.40914   1.000
    N242    N    0.58358   0.40313   0.72245   1.000
    O243    O    0.51249   0.39012   0.74142   1.000
    O244    O    0.51068   0.41640   0.70121   1.000
    O245    O    0.64496   0.42161   0.69766   1.000
    N246    N    0.41448   0.59532   0.27737   1.000
    O247    O    0.48577   0.60754   0.25842   1.000
    O248    O    0.48719   0.58238   0.29877   1.000
    O249    O    0.35277   0.57761   0.30223   1.000
    N250    N    0.26540   0.30288   0.94381   1.000
    O251    O    0.25738   0.24145   0.97138   1.000
    O252    O    0.26850   0.22374   0.93017   1.000
    O253    O    0.26839   0.35144   0.91008   1.000
    N254    N    0.07788   0.58735   0.64245   1.000
    O255    O    0.14523   0.53571   0.62900   1.000
    N256    N    0.23415   0.69298   0.44273   1.000
    O257    O    0.24169   0.75444   0.47060   1.000
    O258    O    0.23158   0.77215   0.42936   1.000
    O259    O    0.23157   0.64441   0.40874   1.000
    N260    N    0.58341   0.09387   0.22190   1.000
    O261    O    0.51233   0.10553   0.24098   1.000
    O262    O    0.51057   0.08077   0.20045   1.000
    O263    O    0.64491   0.07661   0.19708   1.000
    N264    N    0.42045   0.08087   0.64352   1.000
    O265    O    0.35290   0.02485   0.62980   1.000
    N266    N    0.08464   0.40224   0.77833   1.000
    O267    O    0.01301   0.39054   0.75911   1.000
    O268    O    0.01229   0.41402   0.79982   1.000
    O269    O    0.14678   0.41921   0.80350   1.000
    N270    N    0.91169   0.90257   0.72194   1.000
    O271    O    0.98171   0.91486   0.70057   1.000
    O272    O    0.98110   0.88964   0.74097   1.000
    O273    O    0.85150   0.92106   0.69715   1.000
    N274    N    0.73448   0.80626   0.55691   1.000
    O275    O    0.74255   0.74406   0.52964   1.000
    O276    O    0.73168   0.72748   0.57083   1.000
    O277    O    0.73168   0.85526   0.59074   1.000
    N278    N    0.08477   0.09565   0.27788   1.000
    O279    O    0.01239   0.08391   0.29939   1.000
    O280    O    0.01327   0.10818   0.25884   1.000
    O281    O    0.14672   0.07775   0.30277   1.000
    N282    N    0.76144   0.19244   0.05672   1.000
    O283    O    0.75390   0.25392   0.02903   1.000
    O284    O    0.76438   0.27159   0.07031   1.000
    O285    O    0.76459   0.14397   0.09067   1.000
    N286    N    0.92209   0.08201   0.85728   1.000
    O287    O    0.85532   0.02543   0.87080   1.000
    N288    N    0.76222   0.30676   0.55752   1.000
    O289    O    0.76524   0.22786   0.57125   1.000
    O290    O    0.75457   0.24480   0.53001   1.000
    O291    O    0.76501   0.35563   0.59133   1.000
    N292    N    0.41646   0.90235   0.77794   1.000
    O293    O    0.35504   0.91947   0.80281   1.000
    O294    O    0.48933   0.91482   0.79946   1.000
    O295    O    0.48755   0.89055   0.75888   1.000
loop_
    _geom_bond_atom_site_label_1
    _geom_bond_atom_site_label_2
    _geom_bond_distance
    _geom_bond_site_symmetry_2
    _ccdc_geom_bond_type
    Zr65   O112      0.65933      .   S
    Zr24   O112      0.65933      .   S
    Zr89   O113      0.65915      .   S
    Zr36   O113      0.65915      .   S
    Zr36   O114      0.64986      .   S
    Zr88   O114      0.64986      .   S
    Zr24   O115      0.64936      .   S
    Zr64   O115      0.64936      .   S
    Zr88   O116      0.97335      .   S
    Zr10   O116      0.97335      .   S
    Zr64   O117      0.97517      .   S
    Zr4    O117      0.97517      .   S
    Zr99   O118      0.62057      .   S
    Zr41   O118      0.62057      .   S
    Zr59   O119      0.62029      .   S
    Zr21   O119      0.62029      .   S
    Zr21   O120      0.64983      .   S
    Zr58   O120      0.64983      .   S
    Zr41   O121      0.65011      .   S
    Zr98   O121      0.65011      .   S
    Zr4    O122      1.03860      .   S
    Zr71   O122      1.03860      .   S
    Zr4    O123      1.08188      .   S
    Zr70   O123      1.08188      .   S
    Zr10   O124      1.03909      .   S
    Zr95   O124      1.03909      .   S
    Zr10   O125      1.07937      .   S
    Zr94   O125      1.07937      .   S
    Zr71   O126      0.64043      .   S
    Zr27   O126      0.64043      .   S
    Zr95   O127      0.64098      .   S
    Zr39   O127      0.64098      .   S
    Zr58   O128      0.98974      .   S
    Zr13   O128      0.98974      .   S
    Zr98   O129      0.98981      .   S
    Zr3    O129      0.98981  1_545   S
    Zr13   O130      0.98929      .   S
    Zr52   O130      0.98929      .   S
    Zr3    O131      0.98927      .   S
    Zr108  O131      0.98927      .   S
    Zr39   O132      0.63841      .   S
    Zr94   O132      0.63841      .   S
    Zr27   O133      0.63879      .   S
    Zr70   O133      0.63879      .   S
    Zr52   O134      0.64637      .   S
    Zr18   O134      0.64637      .   S
    Zr108  O135      0.64649      .   S
    Zr46   O135      0.64649      .   S
    Zr109  O136      0.62044      .   S
    Zr46   O136      0.62044      .   S
    Zr53   O137      0.62073      .   S
    Zr18   O137      0.62073      .   S
    Zr38   O138      0.62042      .   S
    Zr93   O138      0.62042      .   S
    Zr38   O139      0.64646      .   S
    Zr92   O139      0.64646      .   S
    Zr26   O140      0.62061      .   S
    Zr69   O140      0.62061      .   S
    Zr26   O141      0.64628      .   S
    Zr68   O141      0.64628      .   S
    Zr92   O142      0.98849      .   S
    Zr7    O142      0.98849      .   S
    Zr68   O143      0.98666      .   S
    Zr9    O143      0.98666      .   S
    Zr54   O144      0.63867      .   S
    Zr19   O144      0.63867      .   S
    Zr54   O145      1.08111      .   S
    Zr0    O145      1.08111      .   S
    Zr110  O146      0.63890      .   S
    Zr47   O146      0.63890      .   S
    Zr110  O147      1.08329      .   S
    Zr14   O147      1.08329      .   S
    Zr19   O148      0.64079      .   S
    Zr55   O148      0.64079      .   S
    Zr47   O149      0.64082      .   S
    Zr111  O149      0.64082      .   S
    Zr7    O150      0.98868      .   S
    Zr82   O150      0.98868      .   S
    Zr9    O151      0.98743  1_545   S
    Zr74   O151      0.98743      .   S
    Zr82   O152      0.65017      .   S
    Zr33   O152      0.65017      .   S
    Zr74   O153      0.65039      .   S
    Zr29   O153      0.65039      .   S
    Zr55   O154      1.03641      .   S
    Zr0    O154      1.03641      .   S
    Zr111  O155      1.03740      .   S
    Zr14   O155      1.03740      .   S
    Zr0    O156      0.97244      .   S
    Zr48   O156      0.97244      .   S
    Zr14   O157      0.96866      .   S
    Zr104  O157      0.96866      .   S
    Zr33   O158      0.62033      .   S
    Zr83   O158      0.62033      .   S
    Zr29   O159      0.62007      .   S
    Zr75   O159      0.62007      .   S
    Zr48   O160      0.64996      .   S
    Zr16   O160      0.64996      .   S
    Zr104  O161      0.65032      .   S
    Zr44   O161      0.65032      .   S
    Zr44   O162      0.62404      .   S
    Zr105  O162      0.62404      .   S
    Zr16   O163      0.62424      .   S
    Zr49   O163      0.62424      .   S
    Zr81   O164      0.62423      .   S
    Zr32   O164      0.62423      .   S
    Zr73   O165      0.62514      .   S
    Zr28   O165      0.62514      .   S
    Zr32   O166      0.65005      .   S
    Zr80   O166      0.65005      .   S
    Zr28   O167      0.64988      .   S
    Zr72   O167      0.64988      .   S
    Zr80   O168      0.96973      .   S
    Zr8    O168      0.96973      .   S
    Zr72   O169      0.97422      .   S
    Zr6    O169      0.97422      .   S
    Zr107  O170      0.62037      .   S
    Zr45   O170      0.62037      .   S
    Zr51   O171      0.62052      .   S
    Zr17   O171      0.62052      .   S
    Zr17   O172      0.65021      .   S
    Zr50   O172      0.65021      .   S
    Zr45   O173      0.65000      .   S
    Zr106  O173      0.65000      .   S
    Zr8    O174      1.03586      .   S
    Zr87   O174      1.03586      .   S
    Zr8    O175      1.08499      .   S
    Zr86   O175      1.08499      .   S
    Zr6    O176      1.03719      .   S
    Zr79   O176      1.03719      .   S
    Zr6    O177      1.08598      .   S
    Zr78   O177      1.08598      .   S
    Zr79   O178      0.64108      .   S
    Zr31   O178      0.64108      .   S
    Zr87   O179      0.64113      .   S
    Zr35   O179      0.64113      .   S
    Zr50   O180      0.98895      .   S
    Zr15   O180      0.98895      .   S
    Zr106  O181      0.98789      .   S
    Zr1    O181      0.98789  1_565   S
    Zr1    O182      0.98744      .   S
    Zr100  O182      0.98744      .   S
    Zr15   O183      0.99035      .   S
    Zr60   O183      0.99035      .   S
    Zr31   O184      0.63848      .   S
    Zr78   O184      0.63848      .   S
    Zr35   O185      0.63833      .   S
    Zr86   O185      0.63833      .   S
    Zr60   O186      0.64630      .   S
    Zr22   O186      0.64630      .   S
    Zr100  O187      0.64636      .   S
    Zr42   O187      0.64636      .   S
    Zr101  O188      0.62053      .   S
    Zr42   O188      0.62053      .   S
    Zr61   O189      0.62066      .   S
    Zr22   O189      0.62066      .   S
    Zr30   O190      0.62062      .   S
    Zr77   O190      0.62062      .   S
    Zr30   O191      0.64640      .   S
    Zr76   O191      0.64640      .   S
    Zr34   O192      0.62071      .   S
    Zr85   O192      0.62071      .   S
    Zr34   O193      0.64622      .   S
    Zr84   O193      0.64622      .   S
    Zr76   O194      0.98853      .   S
    Zr11   O194      0.98853      .   S
    Zr84   O195      0.98891      .   S
    Zr5    O195      0.98891      .   S
    Zr62   O196      0.63849      .   S
    Zr23   O196      0.63849      .   S
    Zr62   O197      1.08663      .   S
    Zr2    O197      1.08663      .   S
    Zr102  O198      0.63891      .   S
    Zr43   O198      0.63891      .   S
    Zr102  O199      1.08290      .   S
    Zr12   O199      1.08290      .   S
    Zr43   O200      0.64084      .   S
    Zr103  O200      0.64084      .   S
    Zr23   O201      0.64107      .   S
    Zr63   O201      0.64107      .   S
    Zr11   O202      0.98804  1_565   S
    Zr66   O202      0.98804      .   S
    Zr5    O203      0.98719      .   S
    Zr90   O203      0.98719      .   S
    Zr66   O204      0.65011      .   S
    Zr25   O204      0.65011      .   S
    Zr90   O205      0.65015      .   S
    Zr37   O205      0.65015      .   S
    Zr103  O206      1.03744      .   S
    Zr12   O206      1.03744      .   S
    Zr63   O207      1.03416      .   S
    Zr2    O207      1.03416      .   S
    Zr12   O208      0.97093      .   S
    Zr96   O208      0.97093      .   S
    Zr2    O209      0.97393      .   S
    Zr56   O209      0.97393      .   S
    Zr37   O210      0.62027      .   S
    Zr91   O210      0.62027      .   S
    Zr25   O211      0.62009      .   S
    Zr67   O211      0.62009      .   S
    Zr56   O212      0.64994      .   S
    Zr20   O212      0.64994      .   S
    Zr96   O213      0.65018      .   S
    Zr40   O213      0.65018      .   S
    Zr20   O214      0.62496      .   S
    Zr57   O214      0.62496      .   S
    Zr40   O215      0.62459      .   S
    Zr97   O215      0.62459      .   S
    N216   O217      1.29545      .   S
    Zr2    O217      2.29369      .   S
    N218   O219      1.29499      .   S
    Zr10   O219      2.29265      .   S
    N220   O221      1.18134      .   S
    Zr39   O221      2.02790  1_455   S
    N220   O222      1.13903      .   S
    Zr38   O222      1.98576  1_455   S
    N220   O223      1.11642      .   S
    Zr13   O223      2.13767      .   S
    N224   O225      1.21490      .   S
    Zr37   O225      1.96667      .   S
    N224   O226      1.13520      .   S
    Zr11   O226      2.15808      .   S
    N224   O227      1.16272      .   S
    Zr36   O227      1.91153  1_554   S
    N228   O229      1.29485      .   S
    Zr4    O229      2.29238  1_545   S
    N230   O231      1.29502      .   S
    Zr0    O231      2.29230      .   S
    N232   O233      1.29572      .   S
    Zr14   O233      2.29440  1_545   S
    N234   O235      1.16163      .   S
    Zr40   O235      1.91019  1_556   S
    N234   O236      1.21583      .   S
    Zr41   O236      1.96792      .   S
    N234   O237      1.13551      .   S
    Zr13   O237      2.15756      .   S
    N238   O239      1.21494      .   S
    Zr33   O239      1.96655      .   S
    N238   O240      1.16286      .   S
    Zr32   O240      1.91248      .   S
    N238   O241      1.13613      .   S
    Zr9    O241      2.15859      .   S
    N242   O243      1.16625      .   S
    Zr34   O243      1.91817      .   S
    N242   O244      1.21058      .   S
    Zr35   O244      1.95583      .   S
    N242   O245      1.13901      .   S
    Zr15   O245      2.16368      .   S
    N246   O247      1.16689      .   S
    Zr18   O247      1.91921      .   S
    N246   O248      1.20941      .   S
    Zr19   O248      1.95417      .   S
    N246   O249      1.14122      .   S
    Zr7    O249      2.16927      .   S
    N250   O251      1.16088      .   S
    Zr24   O251      1.90880  1_554   S
    N250   O252      1.21643      .   S
    Zr25   O252      1.96888      .   S
    N250   O253      1.13349      .   S
    Zr5    O253      2.15284      .   S
    N254   O255      1.29260      .   S
    Zr8    O255      2.28738      .   S
    N256   O257      1.16135      .   S
    Zr28   O257      1.90963      .   S
    N256   O258      1.21602      .   S
    Zr29   O258      1.96854      .   S
    N256   O259      1.13528      .   S
    Zr7    O259      2.15506      .   S
    N260   O261      1.16501      .   S
    Zr26   O261      1.91608      .   S
    N260   O262      1.21051      .   S
    Zr27   O262      1.95588      .   S
    N260   O263      1.13727      .   S
    Zr3    O263      2.15945      .   S
    N264   O265      1.32781      .   S
    Zr6    O265      2.22420  1_565   S
    N266   O267      1.16638      .   S
    Zr22   O267      1.91822  1_655   S
    N266   O268      1.20974      .   S
    Zr23   O268      1.95468  1_655   S
    N266   O269      1.14041      .   S
    Zr5    O269      2.16715      .   S
    N270   O271      1.17925      .   S
    Zr31   O271      2.03111  1_455   S
    N270   O272      1.13976      .   S
    Zr30   O272      1.99044  1_455   S
    N270   O273      1.11969      .   S
    Zr1    O273      2.14484      .   S
    N274   O275      1.16256      .   S
    Zr16   O275      1.91192      .   S
    N274   O276      1.21493      .   S
    Zr17   O276      1.96657      .   S
    N274   O277      1.13689      .   S
    Zr1    O277      2.16007      .   S
    N278   O279      1.20972      .   S
    Zr47   O279      1.95464  1_655   S
    N278   O280      1.16605      .   S
    Zr46   O280      1.91772  1_655   S
    N278   O281      1.13935      .   S
    Zr9    O281      2.16460      .   S
    N282   O283      1.16218      .   S
    Zr20   O283      1.91118  1_556   S
    N282   O284      1.21566      .   S
    Zr21   O284      1.96784      .   S
    N282   O285      1.13711      .   S
    Zr3    O285      2.16046      .   S
    N286   O287      1.32803      .   S
    Zr12   O287      2.21763  1_565   S
    N288   O289      1.21527      .   S
    Zr45   O289      1.96706      .   S
    N288   O290      1.16137      .   S
    Zr44   O290      1.90996      .   S
    N288   O291      1.13451      .   S
    Zr15   O291      2.15455      .   S
    N292   O293      1.13673      .   S
    Zr11   O293      2.15847      .   S
    N292   O294      1.21028      .   S
    Zr43   O294      1.95549      .   S
    N292   O295      1.16522      .   S
    Zr42   O295      1.91640      .   S
