# CIF file generated by openbabel 2.4.90, see http://openbabel.sf.net
data_I
_chemical_name_common ''
_cell_length_a 14.575
_cell_length_b 14.7
_cell_length_c 26.013
_cell_angle_alpha 90.15
_cell_angle_beta 90.408
_cell_angle_gamma 90.188
_space_group_name_H-M_alt 'P 1'
_space_group_name_Hall 'P 1'
loop_
    _symmetry_equiv_pos_as_xyz
    x,y,z
loop_
    _atom_site_label
    _atom_site_type_symbol
    _atom_site_fract_x
    _atom_site_fract_y
    _atom_site_fract_z
    _atom_site_occupancy
    C0      C    0.73458   0.55847   0.39300   1.000
    C1      C    0.73095   0.95272   0.65303   1.000
    C2      C    0.76530   0.43737   0.89324   1.000
    C3      C    0.76631   0.04716   0.15302   1.000
    C4      C    0.26166   0.05806   0.10677   1.000
    C5      C    0.26940   0.44847   0.84824   1.000
    C6      C    0.23441   0.93768   0.60688   1.000
    C7      C    0.23092   0.54735   0.34651   1.000
    C8      C    0.26307   0.44135   0.60683   1.000
    C9      C    0.26896   0.04709   0.34710   1.000
    C10     C    0.23449   0.55873   0.10677   1.000
    C11     C    0.23378   0.94859   0.84700   1.000
    C12     C    0.73825   0.93770   0.89321   1.000
    C13     C    0.72998   0.54696   0.15262   1.000
    C14     C    0.76562   0.06193   0.39304   1.000
    C15     C    0.76609   0.45297   0.65340   1.000
    C16     C    0.73650   0.94892   0.53591   1.000
    C17     C    0.75001   0.82872   0.46815   1.000
    C18     C    0.71555   0.75395   0.65079   1.000
    C19     C    0.28127   0.62015   0.24295   1.000
    C20     C    0.42339   0.65593   0.19414   1.000
    C21     C    0.43279   0.52833   0.36852   1.000
    C22     C    0.76662   0.42609   0.31120   1.000
    C23     C    0.89519   0.32646   0.28154   1.000
    C24     C    0.04393   0.32961   0.33220   1.000
    C25     C    0.05354   0.42271   0.41216   1.000
    C26     C    0.91459   0.51310   0.43919   1.000
    C27     C    0.75872   0.04933   0.03641   1.000
    C28     C    0.74547   0.16779   0.96798   1.000
    C29     C    0.78109   0.24697   0.15047   1.000
    C30     C    0.21722   0.37950   0.74364   1.000
    C31     C    0.07414   0.34555   0.69403   1.000
    C32     C    0.06802   0.46512   0.87054   1.000
    C33     C    0.73919   0.57113   0.81152   1.000
    C34     C    0.61398   0.67454   0.78025   1.000
    C35     C    0.46416   0.67483   0.82820   1.000
    C36     C    0.44885   0.58010   0.90692   1.000
    C37     C    0.58475   0.48632   0.93608   1.000
    C38     C    0.26276   0.44600   0.96420   1.000
    C39     C    0.24879   0.32718   0.03242   1.000
    C40     C    0.28555   0.24874   0.85020   1.000
    C41     C    0.71678   0.11919   0.25641   1.000
    C42     C    0.57457   0.15380   0.30548   1.000
    C43     C    0.56500   0.02756   0.13038   1.000
    C44     C    0.23004   0.92590   0.18863   1.000
    C45     C    0.10212   0.82461   0.21790   1.000
    C46     C    0.95338   0.82597   0.16715   1.000
    C47     C    0.94324   0.91929   0.08761   1.000
    C48     C    0.08173   0.01111   0.06086   1.000
    C49     C    0.23573   0.54988   0.46274   1.000
    C50     C    0.24842   0.66856   0.53150   1.000
    C51     C    0.21662   0.74731   0.34902   1.000
    C52     C    0.78250   0.87872   0.75627   1.000
    C53     C    0.92524   0.84124   0.80503   1.000
    C54     C    0.93242   0.97006   0.63096   1.000
    C55     C    0.26598   0.07015   0.68937   1.000
    C56     C    0.39379   0.17195   0.71978   1.000
    C57     C    0.54223   0.17101   0.67009   1.000
    C58     C    0.55257   0.07746   0.59046   1.000
    C59     C    0.41431   0.98495   0.56254   1.000
    C60     C    0.26138   0.05128   0.46385   1.000
    C61     C    0.24646   0.17137   0.53153   1.000
    C62     C    0.28382   0.24630   0.34909   1.000
    C63     C    0.71707   0.37781   0.75649   1.000
    C64     C    0.57519   0.33996   0.80509   1.000
    C65     C    0.56474   0.47263   0.63195   1.000
    C66     C    0.23372   0.57478   0.68800   1.000
    C67     C    0.10565   0.67440   0.71870   1.000
    C68     C    0.95590   0.67086   0.66907   1.000
    C69     C    0.94450   0.57728   0.58940   1.000
    C70     C    0.08304   0.48687   0.56153   1.000
    C71     C    0.24200   0.94640   0.96330   1.000
    C72     C    0.25523   0.82812   0.03189   1.000
    C73     C    0.21874   0.74855   0.84948   1.000
    C74     C    0.78219   0.61917   0.25593   1.000
    C75     C    0.92563   0.65571   0.30477   1.000
    C76     C    0.93073   0.52937   0.12900   1.000
    C77     C    0.25911   0.42452   0.18836   1.000
    C78     C    0.38404   0.32129   0.22029   1.000
    C79     C    0.53468   0.32145   0.17324   1.000
    C80     C    0.55142   0.41662   0.09480   1.000
    C81     C    0.41596   0.51042   0.06498   1.000
    C82     C    0.73680   0.54972   0.03597   1.000
    C83     C    0.75191   0.66907   0.96815   1.000
    C84     C    0.71358   0.74607   0.15044   1.000
    C85     C    0.28301   0.87814   0.74330   1.000
    C86     C    0.42505   0.84340   0.69414   1.000
    C87     C    0.43512   0.96763   0.86970   1.000
    C88     C    0.76580   0.07175   0.81205   1.000
    C89     C    0.89214   0.17439   0.78187   1.000
    C90     C    0.04245   0.17310   0.83080   1.000
    C91     C    0.05652   0.07789   0.90949   1.000
    C92     C    0.91949   0.98488   0.93748   1.000
    C93     C    0.75977   0.44956   0.53684   1.000
    C94     C    0.74700   0.32976   0.46867   1.000
    C95     C    0.78106   0.25395   0.65145   1.000
    C96     C    0.21750   0.11844   0.24329   1.000
    C97     C    0.07468   0.15482   0.19429   1.000
    C98     C    0.06774   0.03037   0.36939   1.000
    C99     C    0.73873   0.92721   0.31144   1.000
    C100    C    0.61250   0.82445   0.27966   1.000
    C101    C    0.46191   0.82596   0.32690   1.000
    C102    C    0.44688   0.92149   0.40551   1.000
    C103    C    0.58373   0.01472   0.43522   1.000
    C104    C    0.73541   0.87702   0.54577   1.000
    C105    C    0.74329   0.80993   0.50839   1.000
    C106    C    0.74368   0.71813   0.52243   1.000
    C107    C    0.73353   0.69644   0.57465   1.000
    C108    C    0.72553   0.76741   0.60998   1.000
    C109    C    0.75756   0.64558   0.48232   1.000
    C110    C    0.72422   0.60094   0.59484   1.000
    C111    C    0.34893   0.60825   0.25968   1.000
    C112    C    0.42839   0.62795   0.23280   1.000
    C113    C    0.51440   0.61136   0.25518   1.000
    C114    C    0.51637   0.57626   0.30547   1.000
    C115    C    0.43357   0.55719   0.32995   1.000
    C116    C    0.59972   0.62817   0.22374   1.000
    C117    C    0.60343   0.56262   0.33488   1.000
    C118    C    0.83102   0.42223   0.33260   1.000
    C119    C    0.90318   0.36816   0.31610   1.000
    C120    C    0.98472   0.36884   0.34462   1.000
    C121    C    0.99052   0.42107   0.38944   1.000
    C122    C    0.91516   0.47211   0.40423   1.000
    C123    C    0.76012   0.12144   0.04590   1.000
    C124    C    0.75237   0.18757   0.00818   1.000
    C125    C    0.75255   0.27973   0.02174   1.000
    C126    C    0.76270   0.30275   0.07393   1.000
    C127    C    0.77077   0.23256   0.10960   1.000
    C128    C    0.74017   0.35109   0.98094   1.000
    C129    C    0.77193   0.39873   0.09386   1.000
    C130    C    0.14987   0.39029   0.76050   1.000
    C131    C    0.06991   0.37166   0.73318   1.000
    C132    C    0.98432   0.38688   0.75575   1.000
    C133    C    0.98326   0.41955   0.80665   1.000
    C134    C    0.06652   0.43774   0.83156   1.000
    C135    C    0.89843   0.37080   0.72402   1.000
    C136    C    0.89664   0.43205   0.83598   1.000
    C137    C    0.67424   0.57646   0.83179   1.000
    C138    C    0.60409   0.63258   0.81436   1.000
    C139    C    0.52168   0.63362   0.84139   1.000
    C140    C    0.51290   0.58084   0.88563   1.000
    C141    C    0.58645   0.52779   0.90144   1.000
    C142    C    0.26414   0.37390   0.95466   1.000
    C143    C    0.25600   0.30765   0.99227   1.000
    C144    C    0.25606   0.21554   0.97860   1.000
    C145    C    0.26683   0.19253   0.92653   1.000
    C146    C    0.27514   0.26286   0.89094   1.000
    C147    C    0.24267   0.14449   0.01932   1.000
    C148    C    0.27635   0.09668   0.90653   1.000
    C149    C    0.64903   0.10706   0.23970   1.000
    C150    C    0.56964   0.12603   0.26668   1.000
    C151    C    0.48366   0.10905   0.24419   1.000
    C152    C    0.48139   0.07444   0.19369   1.000
    C153    C    0.56416   0.05611   0.16910   1.000
    C154    C    0.39881   0.12534   0.27592   1.000
    C155    C    0.39407   0.06091   0.16430   1.000
    C156    C    0.16572   0.92120   0.16716   1.000
    C157    C    0.09387   0.86619   0.18346   1.000
    C158    C    0.01237   0.86593   0.15491   1.000
    C159    C    0.00632   0.91816   0.11027   1.000
    C160    C    0.08141   0.97007   0.09560   1.000
    C161    C    0.23489   0.62196   0.45337   1.000
    C162    C    0.24229   0.68817   0.49131   1.000
    C163    C    0.24285   0.78028   0.47796   1.000
    C164    C    0.23348   0.80330   0.42581   1.000
    C165    C    0.22602   0.73306   0.38985   1.000
    C166    C    0.25562   0.85152   0.51898   1.000
    C167    C    0.22455   0.89932   0.40618   1.000
    C168    C    0.84994   0.89015   0.73961   1.000
    C169    C    0.92972   0.86947   0.76644   1.000
    C170    C    0.00000   0.88546   0.74414   1.000
    C171    C    0.00000   0.92073   0.69387   1.000
    C172    C    0.93371   0.94087   0.66946   1.000
    C173    C    0.10102   0.86798   0.77584   1.000
    C174    C    0.10347   0.93360   0.66454   1.000
    C175    C    0.33027   0.07492   0.66840   1.000
    C176    C    0.40199   0.13018   0.68534   1.000
    C177    C    0.48341   0.13067   0.65737   1.000
    C178    C    0.48955   0.07830   0.61269   1.000
    C179    C    0.41460   0.00000   0.59745   1.000
    C180    C    0.26256   0.12319   0.45399   1.000
    C181    C    0.25382   0.19025   0.49133   1.000
    C182    C    0.25340   0.28205   0.47731   1.000
    C183    C    0.26423   0.30377   0.42513   1.000
    C184    C    0.27323   0.23286   0.38985   1.000
    C185    C    0.23893   0.35459   0.51738   1.000
    C186    C    0.27326   0.39933   0.40502   1.000
    C187    C    0.64928   0.38996   0.73997   1.000
    C188    C    0.56999   0.36912   0.76671   1.000
    C189    C    0.48383   0.38609   0.74459   1.000
    C190    C    0.48141   0.42265   0.69460   1.000
    C191    C    0.56410   0.44276   0.67027   1.000
    C192    C    0.39897   0.36813   0.77619   1.000
    C193    C    0.39417   0.43670   0.66535   1.000
    C194    C    0.16881   0.57850   0.66736   1.000
    C195    C    0.09699   0.63256   0.68429   1.000
    C196    C    0.01485   0.63162   0.65630   1.000
    C197    C    0.00806   0.57916   0.61163   1.000
    C198    C    0.08310   0.52811   0.59641   1.000
    C199    C    0.24040   0.87428   0.95300   1.000
    C200    C    0.24815   0.80825   0.99171   1.000
    C201    C    0.24772   0.71609   0.97820   1.000
    C202    C    0.23732   0.69295   0.92605   1.000
    C203    C    0.22924   0.76301   0.89026   1.000
    C204    C    0.25996   0.64474   0.01899   1.000
    C205    C    0.22802   0.59691   0.90631   1.000
    C206    C    0.84950   0.60802   0.23909   1.000
    C207    C    0.92958   0.62811   0.26593   1.000
    C208    C    0.00000   0.61227   0.24331   1.000
    C209    C    0.00000   0.57766   0.19281   1.000
    C210    C    0.93258   0.55815   0.16836   1.000
    C211    C    0.10072   0.62880   0.27502   1.000
    C212    C    0.10254   0.56464   0.16346   1.000
    C213    C    0.32453   0.41953   0.16854   1.000
    C214    C    0.39445   0.36346   0.18632   1.000
    C215    C    0.47738   0.36269   0.15978   1.000
    C216    C    0.48695   0.41572   0.11500   1.000
    C217    C    0.41364   0.46876   0.09954   1.000
    C218    C    0.73553   0.62174   0.04573   1.000
    C219    C    0.74430   0.68832   0.00833   1.000
    C220    C    0.74454   0.78031   0.02225   1.000
    C221    C    0.73324   0.80279   0.07435   1.000
    C222    C    0.72430   0.73221   0.10970   1.000
    C223    C    0.75928   0.85203   0.98200   1.000
    C224    C    0.72413   0.89851   0.09453   1.000
    C225    C    0.35080   0.88967   0.76010   1.000
    C226    C    0.43011   0.87061   0.73306   1.000
    C227    C    0.51616   0.88683   0.75564   1.000
    C228    C    0.51852   0.92083   0.80627   1.000
    C229    C    0.43586   0.93939   0.83090   1.000
    C230    C    0.60112   0.87066   0.72398   1.000
    C231    C    0.60587   0.93377   0.83569   1.000
    C232    C    0.83091   0.07640   0.83276   1.000
    C233    C    0.90177   0.13217   0.81595   1.000
    C234    C    0.98431   0.13236   0.84354   1.000
    C235    C    0.99245   0.07922   0.88774   1.000
    C236    C    0.91825   0.00000   0.90291   1.000
    C237    C    0.76101   0.37760   0.54653   1.000
    C238    C    0.75357   0.31076   0.50894   1.000
    C239    C    0.75354   0.21888   0.52278   1.000
    C240    C    0.76353   0.19679   0.57501   1.000
    C241    C    0.77106   0.26756   0.61059   1.000
    C242    C    0.74031   0.14682   0.48223   1.000
    C243    C    0.77296   0.10114   0.59494   1.000
    C244    C    0.15007   0.10761   0.26009   1.000
    C245    C    0.07027   0.12766   0.23310   1.000
    C246    C    0.98460   0.11231   0.25563   1.000
    C247    C    0.98329   0.07834   0.30617   1.000
    C248    C    0.06639   0.05873   0.33070   1.000
    C249    C    0.89893   0.12912   0.22398   1.000
    C250    C    0.89674   0.06601   0.33563   1.000
    C251    C    0.67339   0.92271   0.33139   1.000
    C252    C    0.60267   0.86694   0.31367   1.000
    C253    C    0.51984   0.86688   0.34031   1.000
    C254    C    0.51121   0.92024   0.38447   1.000
    C255    C    0.58527   0.97291   0.40050   1.000
    C256    C    0.72683   0.85582   0.59612   1.000
    C257    C    0.35121   0.57246   0.30766   1.000
    C258    C    0.83674   0.47373   0.37587   1.000
    C259    C    0.76917   0.14382   0.09624   1.000
    C260    C    0.14845   0.42388   0.80909   1.000
    C261    C    0.66576   0.52467   0.87456   1.000
    C262    C    0.27336   0.35153   0.90447   1.000
    C263    C    0.64649   0.07156   0.19150   1.000
    C264    C    0.15974   0.97262   0.12409   1.000
    C265    C    0.22705   0.64434   0.40300   1.000
    C266    C    0.85167   0.92638   0.69170   1.000
    C267    C    0.33629   0.00000   0.62526   1.000
    C268    C    0.27209   0.14446   0.40371   1.000
    C269    C    0.64659   0.42722   0.69236   1.000
    C270    C    0.16208   0.52677   0.62426   1.000
    C271    C    0.23108   0.85175   0.90364   1.000
    C272    C    0.85082   0.57251   0.19096   1.000
    C273    C    0.33378   0.47157   0.12590   1.000
    C274    C    0.72590   0.64364   0.09597   1.000
    C275    C    0.35346   0.92462   0.80837   1.000
    C276    C    0.83885   0.00000   0.87544   1.000
    C277    C    0.76949   0.35602   0.59688   1.000
    C278    C    0.14839   0.07259   0.30824   1.000
    C279    C    0.66504   0.97512   0.37400   1.000
    C280    C    0.72672   0.66563   0.43674   1.000
    C281    C    0.79733   0.57303   0.49334   1.000
    C282    C    0.78849   0.57703   0.62695   1.000
    C283    C    0.65646   0.55442   0.58224   1.000
    C284    C    0.63061   0.55370   0.20390   1.000
    C285    C    0.62862   0.70694   0.21771   1.000
    C286    C    0.67721   0.60143   0.32016   1.000
    C287    C    0.60215   0.51535   0.37620   1.000
    C288    C    0.76942   0.32838   0.93561   1.000
    C289    C    0.70339   0.42565   0.99105   1.000
    C290    C    0.70716   0.42328   0.12500   1.000
    C291    C    0.83988   0.44501   0.08204   1.000
    C292    C    0.86723   0.44538   0.70445   1.000
    C293    C    0.86943   0.29204   0.71771   1.000
    C294    C    0.82237   0.39480   0.82010   1.000
    C295    C    0.89861   0.47730   0.87818   1.000
    C296    C    0.26932   0.16803   0.06522   1.000
    C297    C    0.20716   0.06907   0.00000   1.000
    C298    C    0.21097   0.07122   0.87536   1.000
    C299    C    0.34511   0.05152   0.91820   1.000
    C300    C    0.36768   0.05085   0.29562   1.000
    C301    C    0.37059   0.20409   0.28240   1.000
    C302    C    0.32030   0.09808   0.18009   1.000
    C303    C    0.39481   0.01560   0.12218   1.000
    C304    C    0.22691   0.82858   0.56434   1.000
    C305    C    0.29260   0.92622   0.50900   1.000
    C306    C    0.28978   0.92423   0.37533   1.000
    C307    C    0.15640   0.94503   0.41785   1.000
    C308    C    0.13316   0.94231   0.79573   1.000
    C309    C    0.12881   0.78904   0.78218   1.000
    C310    C    0.17707   0.89495   0.67981   1.000
    C311    C    0.10204   0.98009   0.62291   1.000
    C312    C    0.27023   0.33483   0.56291   1.000
    C313    C    0.19846   0.42673   0.50630   1.000
    C314    C    0.20928   0.42300   0.37268   1.000
    C315    C    0.34055   0.44622   0.41794   1.000
    C316    C    0.36750   0.44217   0.79622   1.000
    C317    C    0.37116   0.28900   0.78226   1.000
    C318    C    0.32040   0.39776   0.67990   1.000
    C319    C    0.39522   0.48443   0.62417   1.000
    C320    C    0.23045   0.66745   0.06426   1.000
    C321    C    0.29681   0.57020   0.00000   1.000
    C322    C    0.29304   0.57194   0.87541   1.000
    C323    C    0.15984   0.55085   0.91798   1.000
    C324    C    0.13262   0.55394   0.29390   1.000
    C325    C    0.12891   0.70760   0.28217   1.000
    C326    C    0.17596   0.60486   0.17820   1.000
    C327    C    0.10149   0.51619   0.12241   1.000
    C328    C    0.73113   0.82999   0.93607   1.000
    C329    C    0.79710   0.92596   0.99312   1.000
    C330    C    0.78852   0.92280   0.12663   1.000
    C331    C    0.65658   0.94485   0.08201   1.000
    C332    C    0.63229   0.94534   0.70451   1.000
    C333    C    0.62938   0.79195   0.71748   1.000
    C334    C    0.67923   0.89520   0.82034   1.000
    C335    C    0.60543   0.98026   0.87744   1.000
    C336    C    0.77284   0.16787   0.43736   1.000
    C337    C    0.69964   0.07415   0.49209   1.000
    C338    C    0.70939   0.07703   0.62700   1.000
    C339    C    0.83992   0.05457   0.58215   1.000
    C340    C    0.86692   0.05451   0.20434   1.000
    C341    C    0.87089   0.20793   0.21760   1.000
    C342    C    0.82317   0.10498   0.32046   1.000
    C343    C    0.89812   0.01953   0.37724   1.000
    O344    O    0.22491   0.10678   0.00966   1.000
    O345    O    0.27838   0.60747   0.00949   1.000
    O346    O    0.75246   0.23365   0.01496   1.000
    O347    O    0.75624   0.15450   0.02704   1.000
    O348    O    0.74892   0.17768   0.98808   1.000
    O349    O    0.74442   0.73432   0.01529   1.000
    O350    O    0.73992   0.65503   0.02703   1.000
    O351    O    0.74811   0.67870   0.98824   1.000
    O352    O    0.24520   0.65610   0.04162   1.000
    O353    O    0.25384   0.68042   0.99859   1.000
    O354    O    0.25599   0.15626   0.04227   1.000
    O355    O    0.24936   0.18001   0.99896   1.000
    O356    O    0.75762   0.29124   0.04783   1.000
    O357    O    0.74636   0.31541   0.00134   1.000
    O358    O    0.73889   0.79155   0.04830   1.000
    O359    O    0.75191   0.81617   0.00212   1.000
    O360    O    0.25169   0.81819   0.01180   1.000
    O361    O    0.25240   0.31741   0.01234   1.000
    O362    O    0.73617   0.58573   0.04085   1.000
    O363    O    0.75942   0.08538   0.04115   1.000
    O364    O    0.73072   0.63269   0.07085   1.000
    O365    O    0.76465   0.13263   0.07107   1.000
    O366    O    0.08157   0.99059   0.07823   1.000
    O367    O    0.23247   0.61309   0.08552   1.000
    O368    O    0.41480   0.48959   0.08226   1.000
    O369    O    0.26549   0.11304   0.08600   1.000
    O370    O    0.76732   0.35074   0.08390   1.000
    O371    O    0.76674   0.26765   0.09176   1.000
    O372    O    0.72868   0.85065   0.08444   1.000
    O373    O    0.72877   0.76750   0.09202   1.000
    O374    O    0.69035   0.92168   0.08827   1.000
    O375    O    0.80590   0.42187   0.08795   1.000
    O376    O    0.97478   0.91873   0.09894   1.000
    O377    O    0.73955   0.41100   0.10943   1.000
    O378    O    0.75632   0.91065   0.11058   1.000
    O379    O    0.51919   0.41617   0.10490   1.000
    O380    O    0.04386   0.94412   0.10294   1.000
    O381    O    0.12058   0.97135   0.10985   1.000
    O382    O    0.72510   0.68792   0.10284   1.000
    O383    O    0.72794   0.59530   0.12430   1.000
    O384    O    0.76997   0.18819   0.10292   1.000
    O385    O    0.76774   0.09549   0.12463   1.000
    O386    O    0.45030   0.44224   0.10727   1.000
    O387    O    0.37371   0.47016   0.11272   1.000
    O388    O    0.32824   0.03683   0.11448   1.000
    O389    O    0.21070   0.01534   0.11543   1.000
    O390    O    0.29098   0.07807   0.14343   1.000
    O391    O    0.16799   0.53746   0.11459   1.000
    O392    O    0.28414   0.51515   0.11634   1.000
    O393    O    0.20523   0.58179   0.14249   1.000
    O394    O    0.77593   0.23976   0.13004   1.000
    O395    O    0.71894   0.73914   0.13007   1.000
    O396    O    0.00934   0.89204   0.13259   1.000
    O397    O    0.48217   0.38921   0.13739   1.000
    O398    O    0.39444   0.03826   0.14324   1.000
    O399    O    0.10202   0.54042   0.14294   1.000
    O400    O    0.16273   0.94691   0.14563   1.000
    O401    O    0.71857   0.48512   0.13881   1.000
    O402    O    0.32916   0.44555   0.14722   1.000
    O403    O    0.77741   0.98498   0.13982   1.000
    O404    O    0.93166   0.54376   0.14868   1.000
    O405    O    0.56458   0.04183   0.14974   1.000
    O406    O    0.79040   0.55973   0.17179   1.000
    O407    O    0.68030   0.55033   0.17826   1.000
    O408    O    0.70640   0.05936   0.17226   1.000
    O409    O    0.81661   0.05084   0.17868   1.000
    O410    O    0.98288   0.84595   0.16103   1.000
    O411    O    0.05312   0.86606   0.16919   1.000
    O412    O    0.50603   0.34207   0.16651   1.000
    O413    O    0.43591   0.36307   0.17305   1.000
    O414    O    0.13925   0.58475   0.17083   1.000
    O415    O    0.05127   0.57115   0.17813   1.000
    O416    O    0.35718   0.07949   0.17219   1.000
    O417    O    0.43773   0.06767   0.17899   1.000
    O418    O    0.12980   0.89370   0.17531   1.000
    O419    O    0.19788   0.92355   0.17790   1.000
    O420    O    0.89170   0.56533   0.17966   1.000
    O421    O    0.96629   0.56791   0.18059   1.000
    O422    O    0.35949   0.39149   0.17743   1.000
    O423    O    0.29182   0.42202   0.17845   1.000
    O424    O    0.60533   0.06383   0.18030   1.000
    O425    O    0.52278   0.06527   0.18140   1.000
    O426    O    0.09800   0.84540   0.20068   1.000
    O427    O    0.38925   0.34237   0.20331   1.000
    O428    O    0.85016   0.59026   0.21502   1.000
    O429    O    0.64776   0.08931   0.21560   1.000
    O430    O    0.00000   0.59497   0.21806   1.000
    O431    O    0.48253   0.09174   0.21894   1.000
    O432    O    0.42589   0.64194   0.21347   1.000
    O433    O    0.07247   0.14124   0.21369   1.000
    O434    O    0.61516   0.59094   0.21382   1.000
    O435    O    0.88292   0.09182   0.21416   1.000
    O436    O    0.88491   0.16852   0.22079   1.000
    O437    O    0.61417   0.66756   0.22073   1.000
    O438    O    0.55706   0.61977   0.23946   1.000
    O439    O    0.94176   0.12071   0.23980   1.000
    O440    O    0.47140   0.61965   0.24399   1.000
    O441    O    0.38866   0.61810   0.24624   1.000
    O442    O    0.02743   0.11998   0.24436   1.000
    O443    O    0.11017   0.11763   0.24659   1.000
    O444    O    0.81584   0.61359   0.24751   1.000
    O445    O    0.88954   0.61807   0.25251   1.000
    O446    O    0.68291   0.11312   0.24805   1.000
    O447    O    0.60934   0.11654   0.25319   1.000
    O448    O    0.31510   0.61420   0.25132   1.000
    O449    O    0.18379   0.11303   0.25169   1.000
    O450    O    0.96479   0.62019   0.25462   1.000
    O451    O    0.05036   0.62054   0.25916   1.000
    O452    O    0.52665   0.11754   0.25543   1.000
    O453    O    0.44124   0.11720   0.26005   1.000
    O454    O    0.51539   0.59381   0.28033   1.000
    O455    O    0.98395   0.09532   0.28090   1.000
    O456    O    0.35007   0.59035   0.28367   1.000
    O457    O    0.14923   0.09010   0.28417   1.000
    O458    O    0.92760   0.64191   0.28535   1.000
    O459    O    0.57210   0.13992   0.28608   1.000
    O460    O    0.11481   0.66820   0.27859   1.000
    O461    O    0.11667   0.59137   0.28446   1.000
    O462    O    0.38470   0.16471   0.27916   1.000
    O463    O    0.38324   0.08809   0.28577   1.000
    O464    O    0.60759   0.84570   0.29666   1.000
    O465    O    0.89918   0.34731   0.29882   1.000
    O466    O    0.18177   0.55064   0.32020   1.000
    O467    O    0.31832   0.04897   0.32136   1.000
    O468    O    0.47497   0.56673   0.31771   1.000
    O469    O    0.55990   0.56944   0.32017   1.000
    O470    O    0.02484   0.06854   0.31844   1.000
    O471    O    0.94002   0.07218   0.32090   1.000
    O472    O    0.39239   0.56482   0.31880   1.000
    O473    O    0.29106   0.55990   0.32709   1.000
    O474    O    0.10739   0.06566   0.31947   1.000
    O475    O    0.20867   0.05984   0.32767   1.000
    O476    O    0.79882   0.42416   0.32190   1.000
    O477    O    0.70606   0.92496   0.32142   1.000
    O478    O    0.63803   0.89483   0.32253   1.000
    O479    O    0.56126   0.86691   0.32699   1.000
    O480    O    0.86710   0.39519   0.32435   1.000
    O481    O    0.94395   0.36850   0.33036   1.000
    O482    O    0.64032   0.58202   0.32752   1.000
    O483    O    0.70589   0.57995   0.35658   1.000
    O484    O    0.85995   0.08550   0.32805   1.000
    O485    O    0.79440   0.08346   0.35675   1.000
    O486    O    0.49087   0.84642   0.33360   1.000
    O487    O    0.43318   0.54276   0.34924   1.000
    O488    O    0.06707   0.04455   0.35004   1.000
    O489    O    0.66922   0.94892   0.35269   1.000
    O490    O    0.01433   0.34923   0.33841   1.000
    O491    O    0.83388   0.44798   0.35424   1.000
    O492    O    0.60279   0.53898   0.35554   1.000
    O493    O    0.89743   0.04277   0.35644   1.000
    O494    O    0.51552   0.89356   0.36239   1.000
    O495    O    0.98762   0.39496   0.36703   1.000
    O496    O    0.22010   0.48517   0.35959   1.000
    O497    O    0.22898   0.59584   0.37476   1.000
    O498    O    0.27937   0.98566   0.36122   1.000
    O499    O    0.27052   0.09577   0.37541   1.000
    O500    O    0.22132   0.74018   0.36944   1.000
    O501    O    0.27853   0.23958   0.36947   1.000
    O502    O    0.24127   0.41117   0.38885   1.000
    O503    O    0.71533   0.01852   0.38352   1.000
    O504    O    0.62516   0.97401   0.38725   1.000
    O505    O    0.25716   0.91178   0.39075   1.000
    O506    O    0.78566   0.51610   0.38443   1.000
    O507    O    0.87595   0.47292   0.39005   1.000
    O508    O    0.66836   0.53691   0.38460   1.000
    O509    O    0.83187   0.04073   0.38514   1.000
    O510    O    0.54824   0.94657   0.39249   1.000
    O511    O    0.47904   0.92086   0.39499   1.000
    O512    O    0.95284   0.44659   0.39683   1.000
    O513    O    0.02203   0.42189   0.40080   1.000
    O514    O    0.22653   0.68870   0.39642   1.000
    O515    O    0.22975   0.76818   0.40783   1.000
    O516    O    0.27266   0.18866   0.39678   1.000
    O517    O    0.26873   0.26831   0.40749   1.000
    O518    O    0.73065   0.61205   0.41487   1.000
    O519    O    0.76923   0.11490   0.41520   1.000
    O520    O    0.58450   0.99382   0.41786   1.000
    O521    O    0.23097   0.63315   0.42818   1.000
    O522    O    0.26732   0.13383   0.42885   1.000
    O523    O    0.91488   0.49261   0.42171   1.000
    O524    O    0.30691   0.42278   0.41148   1.000
    O525    O    0.26875   0.35155   0.41507   1.000
    O526    O    0.19048   0.92217   0.41201   1.000
    O527    O    0.22901   0.85131   0.41599   1.000
    O528    O    0.25881   0.29291   0.45122   1.000
    O529    O    0.23816   0.79179   0.45189   1.000
    O530    O    0.74214   0.65560   0.45953   1.000
    O531    O    0.75658   0.15734   0.45980   1.000
    O532    O    0.23531   0.58592   0.45805   1.000
    O533    O    0.23859   0.65506   0.47234   1.000
    O534    O    0.26197   0.08724   0.45892   1.000
    O535    O    0.25819   0.15672   0.47266   1.000
    O536    O    0.74665   0.81932   0.48827   1.000
    O537    O    0.75029   0.32026   0.48880   1.000
    O538    O    0.25361   0.23615   0.48432   1.000
    O539    O    0.24616   0.31832   0.49734   1.000
    O540    O    0.24257   0.73423   0.48463   1.000
    O541    O    0.24923   0.81590   0.49847   1.000
    O542    O    0.71998   0.11048   0.48716   1.000
    O543    O    0.74692   0.18285   0.50250   1.000
    O544    O    0.77744   0.60930   0.48783   1.000
    O545    O    0.75062   0.68185   0.50238   1.000
    O546    O    0.24536   0.67836   0.51140   1.000
    O547    O    0.25014   0.18081   0.51143   1.000
    O548    O    0.21869   0.39066   0.51184   1.000
    O549    O    0.74348   0.76403   0.51541   1.000
    O550    O    0.73935   0.84348   0.52708   1.000
    O551    O    0.75355   0.26482   0.51586   1.000
    O552    O    0.75729   0.34418   0.52773   1.000
    O553    O    0.27411   0.88887   0.51399   1.000
    O554    O    0.25458   0.34471   0.54014   1.000
    O555    O    0.24127   0.84005   0.54166   1.000
    O556    O    0.73861   0.70729   0.54854   1.000
    O557    O    0.75853   0.20783   0.54890   1.000
    O558    O    0.73596   0.91297   0.54084   1.000
    O559    O    0.76039   0.41358   0.54168   1.000
    O560    O    0.73112   0.86642   0.57095   1.000
    O561    O    0.76525   0.36681   0.57170   1.000
    O562    O    0.08307   0.50749   0.57897   1.000
    O563    O    0.41445   0.99248   0.58000   1.000
    O564    O    0.26665   0.38809   0.58487   1.000
    O565    O    0.23066   0.88313   0.58561   1.000
    O566    O    0.72888   0.64869   0.58475   1.000
    O567    O    0.72953   0.73193   0.59231   1.000
    O568    O    0.76825   0.14896   0.58498   1.000
    O569    O    0.76730   0.23218   0.59280   1.000
    O570    O    0.80644   0.07785   0.58854   1.000
    O571    O    0.69034   0.57768   0.58854   1.000
    O572    O    0.97628   0.57822   0.60052   1.000
    O573    O    0.52106   0.07788   0.60157   1.000
    O574    O    0.75636   0.58899   0.61090   1.000
    O575    O    0.74118   0.08908   0.61097   1.000
    O576    O    0.72618   0.81161   0.60305   1.000
    O577    O    0.72889   0.90427   0.62457   1.000
    O578    O    0.04558   0.55364   0.60402   1.000
    O579    O    0.12259   0.52744   0.61034   1.000
    O580    O    0.77027   0.31179   0.60374   1.000
    O581    O    0.76779   0.40449   0.62514   1.000
    O582    O    0.45207   0.03915   0.60507   1.000
    O583    O    0.37544   0.00000   0.61136   1.000
    O584    O    0.32915   0.46289   0.61550   1.000
    O585    O    0.21258   0.48406   0.61555   1.000
    O586    O    0.29174   0.41955   0.64336   1.000
    O587    O    0.16822   0.95888   0.61489   1.000
    O588    O    0.28535   0.96884   0.61607   1.000
    O589    O    0.20574   0.91631   0.64334   1.000
    O590    O    0.72054   0.76068   0.63038   1.000
    O591    O    0.77606   0.26075   0.63102   1.000
    O592    O    0.01145   0.60539   0.63397   1.000
    O593    O    0.48648   0.10448   0.63503   1.000
    O594    O    0.10275   0.95684   0.64372   1.000
    O595    O    0.39469   0.46056   0.64476   1.000
    O596    O    0.16545   0.55263   0.64581   1.000
    O597    O    0.33328   0.03746   0.64683   1.000
    O598    O    0.77729   0.51500   0.64017   1.000
    O599    O    0.72017   0.01487   0.64002   1.000
    O600    O    0.93307   0.95547   0.65021   1.000
    O601    O    0.56442   0.45769   0.65111   1.000
    O602    O    0.79131   0.93955   0.67236   1.000
    O603    O    0.68162   0.94903   0.67877   1.000
    O604    O    0.70634   0.44009   0.67288   1.000
    O605    O    0.81666   0.44917   0.67892   1.000
    O606    O    0.98537   0.65124   0.66268   1.000
    O607    O    0.05592   0.63209   0.67029   1.000
    O608    O    0.51282   0.15084   0.66373   1.000
    O609    O    0.44270   0.13042   0.67135   1.000
    O610    O    0.14027   0.91427   0.67217   1.000
    O611    O    0.05173   0.92716   0.67921   1.000
    O612    O    0.35728   0.41723   0.67263   1.000
    O613    O    0.43779   0.42967   0.67997   1.000
    O614    O    0.13290   0.60553   0.67582   1.000
    O615    O    0.20127   0.57664   0.67768   1.000
    O616    O    0.36613   0.10255   0.67687   1.000
    O617    O    0.29813   0.07254   0.67888   1.000
    O618    O    0.89269   0.93363   0.68058   1.000
    O619    O    0.96685   0.93080   0.68166   1.000
    O620    O    0.60534   0.43499   0.68131   1.000
    O621    O    0.52276   0.43270   0.68243   1.000
    O622    O    0.10132   0.65348   0.70150   1.000
    O623    O    0.39789   0.15106   0.70256   1.000
    O624    O    0.85080   0.90826   0.71565   1.000
    O625    O    0.64793   0.40859   0.71616   1.000
    O626    O    0.00000   0.90309   0.71901   1.000
    O627    O    0.07202   0.35861   0.71361   1.000
    O628    O    0.42758   0.85700   0.71360   1.000
    O629    O    0.48262   0.40437   0.71959   1.000
    O630    O    0.88283   0.40809   0.71423   1.000
    O631    O    0.61670   0.90800   0.71424   1.000
    O632    O    0.61525   0.83130   0.72073   1.000
    O633    O    0.88393   0.33142   0.72086   1.000
    O634    O    0.55864   0.87875   0.73981   1.000
    O635    O    0.94138   0.37884   0.73989   1.000
    O636    O    0.47314   0.87872   0.74435   1.000
    O637    O    0.39046   0.88014   0.74658   1.000
    O638    O    0.02711   0.37927   0.74447   1.000
    O639    O    0.10989   0.38098   0.74684   1.000
    O640    O    0.81622   0.88443   0.74794   1.000
    O641    O    0.88983   0.87981   0.75303   1.000
    O642    O    0.68317   0.38388   0.74823   1.000
    O643    O    0.60963   0.37954   0.75334   1.000
    O644    O    0.31691   0.88390   0.75170   1.000
    O645    O    0.18355   0.38489   0.75207   1.000
    O646    O    0.96486   0.87747   0.75529   1.000
    O647    O    0.05051   0.87672   0.75999   1.000
    O648    O    0.52691   0.37760   0.75565   1.000
    O649    O    0.44140   0.37711   0.76039   1.000
    O650    O    0.51734   0.90383   0.78096   1.000
    O651    O    0.98379   0.40322   0.78120   1.000
    O652    O    0.35213   0.90714   0.78424   1.000
    O653    O    0.14916   0.40708   0.78480   1.000
    O654    O    0.92748   0.85536   0.78574   1.000
    O655    O    0.57259   0.35454   0.78590   1.000
    O656    O    0.11491   0.82851   0.77901   1.000
    O657    O    0.11709   0.90514   0.78579   1.000
    O658    O    0.38506   0.32856   0.77923   1.000
    O659    O    0.38324   0.40515   0.78621   1.000
    O660    O    0.60904   0.65356   0.79730   1.000
    O661    O    0.89696   0.15328   0.79891   1.000
    O662    O    0.18347   0.94545   0.82137   1.000
    O663    O    0.31845   0.44532   0.82223   1.000
    O664    O    0.47719   0.93011   0.81859   1.000
    O665    O    0.56220   0.92730   0.82098   1.000
    O666    O    0.02489   0.42865   0.81910   1.000
    O667    O    0.93995   0.42580   0.82131   1.000
    O668    O    0.39466   0.93200   0.81964   1.000
    O669    O    0.29362   0.93660   0.82769   1.000
    O670    O    0.10749   0.43081   0.82032   1.000
    O671    O    0.20893   0.43617   0.82866   1.000
    O672    O    0.70672   0.57379   0.82165   1.000
    O673    O    0.79836   0.07408   0.82241   1.000
    O674    O    0.63917   0.60452   0.82308   1.000
    O675    O    0.56289   0.63310   0.82787   1.000
    O676    O    0.86634   0.10428   0.82435   1.000
    O677    O    0.94304   0.13226   0.82975   1.000
    O678    O    0.85950   0.41343   0.82804   1.000
    O679    O    0.79384   0.41608   0.85667   1.000
    O680    O    0.64255   0.91449   0.82802   1.000
    O681    O    0.70874   0.91645   0.85677   1.000
    O682    O    0.49292   0.65422   0.83480   1.000
    O683    O    0.01338   0.15273   0.83717   1.000
    O684    O    0.43549   0.95351   0.85030   1.000
    O685    O    0.06727   0.45143   0.85105   1.000
    O686    O    0.67000   0.55057   0.85318   1.000
    O687    O    0.83488   0.03820   0.85410   1.000
    O688    O    0.60565   0.95701   0.85657   1.000
    O689    O    0.89762   0.45468   0.85708   1.000
    O690    O    0.51729   0.60723   0.86351   1.000
    O691    O    0.98838   0.10579   0.86564   1.000
    O692    O    0.22238   0.00991   0.86118   1.000
    O693    O    0.23243   0.90017   0.87532   1.000
    O694    O    0.28122   0.51020   0.86182   1.000
    O695    O    0.27138   0.40000   0.87635   1.000
    O696    O    0.22399   0.75578   0.86987   1.000
    O697    O    0.28034   0.25580   0.87057   1.000
    O698    O    0.71553   0.48102   0.88390   1.000
    O699    O    0.62610   0.52623   0.88800   1.000
    O700    O    0.24366   0.08395   0.89094   1.000
    O701    O    0.26053   0.58442   0.89086   1.000
    O702    O    0.78855   0.96885   0.88432   1.000
    O703    O    0.87855   0.00000   0.88917   1.000
    O704    O    0.67184   0.95898   0.88533   1.000
    O705    O    0.83196   0.45734   0.88571   1.000
    O706    O    0.54967   0.55431   0.89354   1.000
    O707    O    0.48088   0.58047   0.89628   1.000
    O708    O    0.95535   0.03961   0.89533   1.000
    O709    O    0.02449   0.07856   0.89861   1.000
    O710    O    0.23016   0.80738   0.89695   1.000
    O711    O    0.23328   0.72798   0.90816   1.000
    O712    O    0.27425   0.30720   0.89770   1.000
    O713    O    0.27098   0.22770   0.90873   1.000
    O714    O    0.73469   0.88385   0.91464   1.000
    O715    O    0.76736   0.38287   0.91442   1.000
    O716    O    0.58560   0.50705   0.91876   1.000
    O717    O    0.91887   0.99244   0.92019   1.000
    O718    O    0.23574   0.86302   0.92832   1.000
    O719    O    0.26875   0.36271   0.92957   1.000
    O720    O    0.19393   0.57388   0.91214   1.000
    O721    O    0.23267   0.64493   0.91618   1.000
    O722    O    0.31073   0.07410   0.91236   1.000
    O723    O    0.27159   0.14460   0.91653   1.000
    O724    O    0.24252   0.70452   0.95212   1.000
    O725    O    0.26144   0.20403   0.95256   1.000
    O726    O    0.75479   0.33973   0.95827   1.000
    O727    O    0.74521   0.84101   0.95903   1.000
    O728    O    0.24120   0.91034   0.95815   1.000
    O729    O    0.24427   0.84127   0.97235   1.000
    O730    O    0.26345   0.40995   0.95943   1.000
    O731    O    0.26007   0.34077   0.97347   1.000
    O732    O    0.24794   0.76217   0.98495   1.000
    O733    O    0.25603   0.26159   0.98543   1.000
    O734    O    0.72178   0.38837   0.98599   1.000
    O735    O    0.77819   0.88900   0.98756   1.000
loop_
    _geom_bond_atom_site_label_1
    _geom_bond_atom_site_label_2
    _geom_bond_distance
    _geom_bond_site_symmetry_2
    _ccdc_geom_bond_type
    C297   O344      0.65933      .   S
    C147   O344      0.65933      .   S
    C321   O345      0.65915      .   S
    C204   O345      0.65915      .   S
    C124   O346      0.69948      .   S
    C125   O346      0.69948      .   S
    C124   O347      0.69369      .   S
    C123   O347      0.69369      .   S
    C124   O348      0.54427  1_554   S
    C28    O348      0.54427      .   S
    C219   O349      0.69946      .   S
    C220   O349      0.69946      .   S
    C219   O350      0.69404      .   S
    C218   O350      0.69404      .   S
    C219   O351      0.54431  1_554   S
    C83    O351      0.54431      .   S
    C204   O352      0.64986      .   S
    C320   O352      0.64986      .   S
    C204   O353      0.75199  1_554   S
    C201   O353      0.75199      .   S
    C147   O354      0.64936      .   S
    C296   O354      0.64936      .   S
    C147   O355      0.75141  1_554   S
    C144   O355      0.75141      .   S
    C125   O356      0.70249      .   S
    C126   O356      0.70249      .   S
    C125   O357      0.75228      .   S
    C128   O357      0.75228  1_556   S
    C220   O358      0.70255      .   S
    C221   O358      0.70255      .   S
    C220   O359      0.75193      .   S
    C223   O359      0.75193  1_556   S
    C72    O360      0.54431      .   S
    C200   O360      0.54431  1_556   S
    C39    O361      0.54417      .   S
    C143   O361      0.54417  1_556   S
    C82    O362      0.54413      .   S
    C218   O362      0.54413      .   S
    C27    O363      0.54388      .   S
    C123   O363      0.54388      .   S
    C218   O364      0.67675      .   S
    C274   O364      0.67675      .   S
    C123   O365      0.67740      .   S
    C259   O365      0.67740      .   S
    C48    O366      0.54393  1_545   S
    C160   O366      0.54393      .   S
    C320   O367      0.97335      .   S
    C10    O367      0.97335      .   S
    C81    O368      0.54489      .   S
    C217   O368      0.54489      .   S
    C296   O369      0.97517      .   S
    C4     O369      0.97517      .   S
    C126   O370      0.75361      .   S
    C129   O370      0.75361      .   S
    C126   O371      0.69703      .   S
    C127   O371      0.69703      .   S
    C221   O372      0.75352      .   S
    C224   O372      0.75352      .   S
    C221   O373      0.69733      .   S
    C222   O373      0.69733      .   S
    C331   O374      0.62057      .   S
    C224   O374      0.62057      .   S
    C291   O375      0.62029      .   S
    C129   O375      0.62029      .   S
    C47    O376      0.54438      .   S
    C159   O376      0.54438  1_455   S
    C129   O377      0.64983      .   S
    C290   O377      0.64983      .   S
    C224   O378      0.65011      .   S
    C330   O378      0.65011      .   S
    C80    O379      0.53994      .   S
    C216   O379      0.53994      .   S
    C160   O380      0.69424      .   S
    C159   O380      0.69424      .   S
    C160   O381      0.67856      .   S
    C264   O381      0.67856      .   S
    C274   O382      0.67475      .   S
    C222   O382      0.67475      .   S
    C274   O383      1.02530      .   S
    C13    O383      1.02530      .   S
    C259   O384      0.67460      .   S
    C127   O384      0.67460      .   S
    C259   O385      1.02636      .   S
    C3     O385      1.02636      .   S
    C217   O386      0.69145      .   S
    C216   O386      0.69145      .   S
    C217   O387      0.67788      .   S
    C273   O387      0.67788      .   S
    C4     O388      1.03860      .   S
    C303   O388      1.03860      .   S
    C4     O389      0.99838      .   S
    C264   O389      0.99838  1_565   S
    C4     O390      1.08188      .   S
    C302   O390      1.08188      .   S
    C10    O391      1.03909      .   S
    C327   O391      1.03909      .   S
    C10    O392      0.99860      .   S
    C273   O392      0.99860      .   S
    C10    O393      1.07937      .   S
    C326   O393      1.07937      .   S
    C127   O394      0.54637      .   S
    C29    O394      0.54637      .   S
    C222   O395      0.54555      .   S
    C84    O395      0.54555      .   S
    C159   O396      0.69811      .   S
    C158   O396      0.69811      .   S
    C216   O397      0.70543      .   S
    C215   O397      0.70543      .   S
    C303   O398      0.64043      .   S
    C155   O398      0.64043      .   S
    C327   O399      0.64098      .   S
    C212   O399      0.64098      .   S
    C264   O400      0.67782      .   S
    C156   O400      0.67782      .   S
    C290   O401      0.98974      .   S
    C13    O401      0.98974      .   S
    C273   O402      0.67816      .   S
    C213   O402      0.67816      .   S
    C330   O403      0.98981      .   S
    C3     O403      0.98981  1_545   S
    C76    O404      0.55347      .   S
    C210   O404      0.55347      .   S
    C43    O405      0.54516      .   S
    C153   O405      0.54516      .   S
    C13    O406      1.02545      .   S
    C272   O406      1.02545      .   S
    C13    O407      0.98929      .   S
    C284   O407      0.98929      .   S
    C3     O408      1.02558      .   S
    C263   O408      1.02558      .   S
    C3     O409      0.98927      .   S
    C340   O409      0.98927      .   S
    C158   O410      0.54482  1_455   S
    C46    O410      0.54482      .   S
    C158   O411      0.69820      .   S
    C157   O411      0.69820      .   S
    C215   O412      0.54495      .   S
    C79    O412      0.54495      .   S
    C215   O413      0.69815      .   S
    C214   O413      0.69815      .   S
    C212   O414      0.63841      .   S
    C326   O414      0.63841      .   S
    C212   O415      0.84715      .   S
    C209   O415      0.84715      .   S
    C155   O416      0.63879      .   S
    C302   O416      0.63879      .   S
    C155   O417      0.74627      .   S
    C152   O417      0.74627      .   S
    C156   O418      0.69512      .   S
    C157   O418      0.69512      .   S
    C156   O419      0.54486      .   S
    C44    O419      0.54486      .   S
    C210   O420      0.67480      .   S
    C272   O420      0.67480      .   S
    C210   O421      0.60011      .   S
    C209   O421      0.60011  1_455   S
    C213   O422      0.69508      .   S
    C214   O422      0.69508      .   S
    C213   O423      0.54488      .   S
    C77    O423      0.54488      .   S
    C153   O424      0.67431      .   S
    C263   O424      0.67431      .   S
    C153   O425      0.69805      .   S
    C152   O425      0.69805      .   S
    C157   O426      0.54604      .   S
    C45    O426      0.54604      .   S
    C214   O427      0.54597      .   S
    C78    O427      0.54597      .   S
    C272   O428      0.67774      .   S
    C206   O428      0.67774      .   S
    C263   O429      0.67851      .   S
    C149   O429      0.67851      .   S
    C209   O430      0.70373      .   S
    C208   O430      0.70373      .   S
    C152   O431      0.70383      .   S
    C151   O431      0.70383      .   S
    C20    O432      0.54479      .   S
    C112   O432      0.54479      .   S
    C97    O433      0.54444      .   S
    C245   O433      0.54444      .   S
    C284   O434      0.64637      .   S
    C116   O434      0.64637      .   S
    C340   O435      0.64649      .   S
    C249   O435      0.64649      .   S
    C341   O436      0.62044      .   S
    C249   O436      0.62044      .   S
    C285   O437      0.62073      .   S
    C116   O437      0.62073      .   S
    C116   O438      0.75660      .   S
    C113   O438      0.75660      .   S
    C249   O439      0.75606      .   S
    C246   O439      0.75606      .   S
    C112   O440      0.70041      .   S
    C113   O440      0.70041      .   S
    C112   O441      0.69363      .   S
    C111   O441      0.69363      .   S
    C245   O442      0.70052      .   S
    C246   O442      0.70052  1_655   S
    C245   O443      0.69360      .   S
    C244   O443      0.69360      .   S
    C206   O444      0.54503      .   S
    C74    O444      0.54503      .   S
    C206   O445      0.69315      .   S
    C207   O445      0.69315      .   S
    C149   O446      0.54502      .   S
    C41    O446      0.54502      .   S
    C149   O447      0.69317      .   S
    C150   O447      0.69317      .   S
    C19    O448      0.54494      .   S
    C111   O448      0.54494      .   S
    C96    O449      0.54487      .   S
    C244   O449      0.54487      .   S
    C208   O450      0.60486  1_455   S
    C207   O450      0.60486      .   S
    C208   O451      0.84761      .   S
    C211   O451      0.84761      .   S
    C151   O452      0.70032      .   S
    C150   O452      0.70032      .   S
    C151   O453      0.75555      .   S
    C154   O453      0.75555      .   S
    C113   O454      0.70383      .   S
    C114   O454      0.70383      .   S
    C246   O455      0.70388      .   S
    C247   O455      0.70388      .   S
    C111   O456      0.67799      .   S
    C257   O456      0.67799      .   S
    C244   O457      0.67788      .   S
    C278   O457      0.67788      .   S
    C207   O458      0.54486      .   S
    C75    O458      0.54486      .   S
    C150   O459      0.54478      .   S
    C42    O459      0.54478      .   S
    C211   O460      0.62042      .   S
    C325   O460      0.62042      .   S
    C211   O461      0.64646      .   S
    C324   O461      0.64646      .   S
    C154   O462      0.62061      .   S
    C301   O462      0.62061      .   S
    C154   O463      0.64628      .   S
    C300   O463      0.64628      .   S
    C100   O464      0.54608      .   S
    C252   O464      0.54608      .   S
    C23    O465      0.54606      .   S
    C119   O465      0.54606      .   S
    C324   O466      0.98849      .   S
    C7     O466      0.98849      .   S
    C300   O467      0.98666      .   S
    C9     O467      0.98666      .   S
    C114   O468      0.69828      .   S
    C115   O468      0.69828      .   S
    C114   O469      0.74567      .   S
    C117   O469      0.74567      .   S
    C247   O470      0.69810  1_655   S
    C248   O470      0.69810      .   S
    C247   O471      0.74578      .   S
    C250   O471      0.74578      .   S
    C257   O472      0.67452      .   S
    C115   O472      0.67452      .   S
    C257   O473      1.03132      .   S
    C7     O473      1.03132      .   S
    C278   O474      0.67455      .   S
    C248   O474      0.67455      .   S
    C278   O475      1.02855      .   S
    C9     O475      1.02855      .   S
    C22    O476      0.54480      .   S
    C118   O476      0.54480      .   S
    C99    O477      0.54488      .   S
    C251   O477      0.54488      .   S
    C252   O478      0.69509      .   S
    C251   O478      0.69509      .   S
    C252   O479      0.69814      .   S
    C253   O479      0.69814      .   S
    C119   O480      0.69502      .   S
    C118   O480      0.69502      .   S
    C119   O481      0.69827      .   S
    C120   O481      0.69827      .   S
    C286   O482      0.63867      .   S
    C117   O482      0.63867      .   S
    C286   O483      1.08111      .   S
    C0     O483      1.08111      .   S
    C342   O484      0.63890      .   S
    C250   O484      0.63890      .   S
    C342   O485      1.08329      .   S
    C14    O485      1.08329      .   S
    C101   O486      0.54494      .   S
    C253   O486      0.54494      .   S
    C115   O487      0.54524      .   S
    C21    O487      0.54524      .   S
    C248   O488      0.54524      .   S
    C98    O488      0.54524      .   S
    C251   O489      0.67728      .   S
    C279   O489      0.67728      .   S
    C24    O490      0.54497      .   S
    C120   O490      0.54497  1_655   S
    C118   O491      0.67836      .   S
    C258   O491      0.67836      .   S
    C117   O492      0.64079      .   S
    C287   O492      0.64079      .   S
    C250   O493      0.64082      .   S
    C343   O493      0.64082      .   S
    C253   O494      0.69798      .   S
    C254   O494      0.69798      .   S
    C120   O495      0.69811      .   S
    C121   O495      0.69811      .   S
    C7     O496      0.98868      .   S
    C314   O496      0.98868      .   S
    C7     O497      1.02300      .   S
    C265   O497      1.02300      .   S
    C9     O498      0.98743  1_545   S
    C306   O498      0.98743      .   S
    C9     O499      1.02556      .   S
    C268   O499      1.02556      .   S
    C51    O500      0.54544      .   S
    C165   O500      0.54544      .   S
    C62    O501      0.54551      .   S
    C184   O501      0.54551      .   S
    C314   O502      0.65017      .   S
    C186   O502      0.65017      .   S
    C279   O503      0.99962  1_565   S
    C14    O503      0.99962      .   S
    C279   O504      0.67808      .   S
    C255   O504      0.67808      .   S
    C306   O505      0.65039      .   S
    C167   O505      0.65039      .   S
    C258   O506      0.99830      .   S
    C0     O506      0.99830      .   S
    C258   O507      0.67817      .   S
    C122   O507      0.67817      .   S
    C287   O508      1.03641      .   S
    C0     O508      1.03641      .   S
    C343   O509      1.03740      .   S
    C14    O509      1.03740      .   S
    C254   O510      0.69379      .   S
    C255   O510      0.69379      .   S
    C254   O511      0.54455      .   S
    C102   O511      0.54455      .   S
    C121   O512      0.69411      .   S
    C122   O512      0.69411      .   S
    C121   O513      0.54444  1_655   S
    C25    O513      0.54444      .   S
    C165   O514      0.67461      .   S
    C265   O514      0.67461      .   S
    C165   O515      0.69746      .   S
    C164   O515      0.69746      .   S
    C184   O516      0.67477      .   S
    C268   O516      0.67477      .   S
    C184   O517      0.69707      .   S
    C183   O517      0.69707      .   S
    C0     O518      0.97244      .   S
    C280   O518      0.97244      .   S
    C14    O519      0.96866      .   S
    C336   O519      0.96866      .   S
    C255   O520      0.54576      .   S
    C103   O520      0.54576  1_545   S
    C265   O521      0.67795      .   S
    C161   O521      0.67795      .   S
    C268   O522      0.67678      .   S
    C180   O522      0.67678      .   S
    C122   O523      0.54485      .   S
    C26    O523      0.54485      .   S
    C186   O524      0.62033      .   S
    C315   O524      0.62033      .   S
    C186   O525      0.75301      .   S
    C183   O525      0.75301      .   S
    C167   O526      0.62007      .   S
    C307   O526      0.62007      .   S
    C167   O527      0.75397      .   S
    C164   O527      0.75397      .   S
    C183   O528      0.70254      .   S
    C182   O528      0.70254      .   S
    C164   O529      0.70240      .   S
    C163   O529      0.70240      .   S
    C280   O530      0.64996      .   S
    C109   O530      0.64996      .   S
    C336   O531      0.65032      .   S
    C242   O531      0.65032      .   S
    C161   O532      0.54402      .   S
    C49    O532      0.54402      .   S
    C161   O533      0.69383      .   S
    C162   O533      0.69383      .   S
    C180   O534      0.54426      .   S
    C60    O534      0.54426      .   S
    C180   O535      0.69441      .   S
    C181   O535      0.69441      .   S
    C17    O536      0.54415      .   S
    C105   O536      0.54415      .   S
    C94    O537      0.54425      .   S
    C238   O537      0.54425      .   S
    C182   O538      0.69943      .   S
    C181   O538      0.69943      .   S
    C182   O539      0.75282      .   S
    C185   O539      0.75282      .   S
    C163   O540      0.69941      .   S
    C162   O540      0.69941      .   S
    C163   O541      0.75166      .   S
    C166   O541      0.75166      .   S
    C242   O542      0.62404      .   S
    C337   O542      0.62404      .   S
    C242   O543      0.75195      .   S
    C239   O543      0.75195      .   S
    C109   O544      0.62424      .   S
    C281   O544      0.62424      .   S
    C109   O545      0.75259      .   S
    C106   O545      0.75259      .   S
    C162   O546      0.54418      .   S
    C50    O546      0.54418      .   S
    C181   O547      0.54428      .   S
    C61    O547      0.54428      .   S
    C313   O548      0.62423      .   S
    C185   O548      0.62423      .   S
    C105   O549      0.69948      .   S
    C106   O549      0.69948      .   S
    C105   O550      0.69440      .   S
    C104   O550      0.69440      .   S
    C238   O551      0.69937      .   S
    C239   O551      0.69937      .   S
    C238   O552      0.69391      .   S
    C237   O552      0.69391      .   S
    C305   O553      0.62514      .   S
    C166   O553      0.62514      .   S
    C185   O554      0.65005      .   S
    C312   O554      0.65005      .   S
    C166   O555      0.64988      .   S
    C304   O555      0.64988      .   S
    C106   O556      0.70241      .   S
    C107   O556      0.70241      .   S
    C239   O557      0.70220      .   S
    C240   O557      0.70220      .   S
    C16    O558      0.54417      .   S
    C104   O558      0.54417      .   S
    C93    O559      0.54410      .   S
    C237   O559      0.54410      .   S
    C104   O560      0.67685      .   S
    C256   O560      0.67685      .   S
    C237   O561      0.67666      .   S
    C277   O561      0.67666      .   S
    C70    O562      0.54494      .   S
    C198   O562      0.54494      .   S
    C59    O563      0.46704      .   S
    C179   O563      0.46704  1_545   S
    C312   O564      0.96973      .   S
    C8     O564      0.96973      .   S
    C304   O565      0.97422      .   S
    C6     O565      0.97422      .   S
    C107   O566      0.75310      .   S
    C110   O566      0.75310      .   S
    C107   O567      0.69710      .   S
    C108   O567      0.69710      .   S
    C240   O568      0.75318      .   S
    C243   O568      0.75318      .   S
    C240   O569      0.69705      .   S
    C241   O569      0.69705      .   S
    C339   O570      0.62037      .   S
    C243   O570      0.62037      .   S
    C283   O571      0.62052      .   S
    C110   O571      0.62052      .   S
    C69    O572      0.54440      .   S
    C197   O572      0.54440  1_455   S
    C58    O573      0.54450      .   S
    C178   O573      0.54450      .   S
    C110   O574      0.65021      .   S
    C282   O574      0.65021      .   S
    C243   O575      0.65000      .   S
    C338   O575      0.65000      .   S
    C256   O576      0.67486      .   S
    C108   O576      0.67486      .   S
    C256   O577      1.02608      .   S
    C1     O577      1.02608      .   S
    C198   O578      0.69394      .   S
    C197   O578      0.69394      .   S
    C198   O579      0.67802      .   S
    C270   O579      0.67802      .   S
    C277   O580      0.67477      .   S
    C241   O580      0.67477      .   S
    C277   O581      1.02294      .   S
    C15    O581      1.02294      .   S
    C179   O582      0.81523      .   S
    C178   O582      0.81523      .   S
    C179   O583      0.67784      .   S
    C267   O583      0.67784      .   S
    C8     O584      1.03586      .   S
    C319   O584      1.03586      .   S
    C8     O585      0.99595      .   S
    C270   O585      0.99595      .   S
    C8     O586      1.08499      .   S
    C318   O586      1.08499      .   S
    C6     O587      1.03719      .   S
    C311   O587      1.03719      .   S
    C6     O588      0.90159      .   S
    C267   O588      0.90159  1_545   S
    C6     O589      1.08598      .   S
    C310   O589      1.08598      .   S
    C108   O590      0.54552      .   S
    C18    O590      0.54552      .   S
    C241   O591      0.54546      .   S
    C95    O591      0.54546      .   S
    C197   O592      0.69780      .   S
    C196   O592      0.69780      .   S
    C178   O593      0.69799      .   S
    C177   O593      0.69799      .   S
    C311   O594      0.64108      .   S
    C174   O594      0.64108      .   S
    C319   O595      0.64113      .   S
    C193   O595      0.64113      .   S
    C270   O596      0.67792      .   S
    C194   O596      0.67792      .   S
    C267   O597      0.78668      .   S
    C175   O597      0.78668      .   S
    C282   O598      0.98895      .   S
    C15    O598      0.98895      .   S
    C338   O599      0.98789      .   S
    C1     O599      0.98789  1_565   S
    C54    O600      0.54532      .   S
    C172   O600      0.54532      .   S
    C65    O601      0.54519      .   S
    C191   O601      0.54519      .   S
    C1     O602      1.02937      .   S
    C266   O602      1.02937      .   S
    C1     O603      0.98744      .   S
    C332   O603      0.98744      .   S
    C15    O604      1.02794      .   S
    C269   O604      1.02794      .   S
    C15    O605      0.99035      .   S
    C292   O605      0.99035      .   S
    C196   O606      0.54488  1_455   S
    C68    O606      0.54488      .   S
    C196   O607      0.69840      .   S
    C195   O607      0.69840      .   S
    C177   O608      0.54490      .   S
    C57    O608      0.54490      .   S
    C177   O609      0.69818      .   S
    C176   O609      0.69818      .   S
    C174   O610      0.63848      .   S
    C310   O610      0.63848      .   S
    C174   O611      0.85254      .   S
    C171   O611      0.85254      .   S
    C193   O612      0.63833      .   S
    C318   O612      0.63833      .   S
    C193   O613      0.74619      .   S
    C190   O613      0.74619      .   S
    C194   O614      0.69495      .   S
    C195   O614      0.69495      .   S
    C194   O615      0.54302      .   S
    C66    O615      0.54302      .   S
    C175   O616      0.69513      .   S
    C176   O616      0.69513      .   S
    C175   O617      0.54487      .   S
    C55    O617      0.54487      .   S
    C172   O618      0.67431      .   S
    C266   O618      0.67431      .   S
    C172   O619      0.59552      .   S
    C171   O619      0.59552  1_455   S
    C191   O620      0.67464      .   S
    C269   O620      0.67464      .   S
    C191   O621      0.69817      .   S
    C190   O621      0.69817      .   S
    C195   O622      0.54553      .   S
    C67    O622      0.54553      .   S
    C176   O623      0.54615      .   S
    C56    O623      0.54615      .   S
    C266   O624      0.67849      .   S
    C168   O624      0.67849      .   S
    C269   O625      0.67794      .   S
    C187   O625      0.67794      .   S
    C171   O626      0.70398      .   S
    C170   O626      0.70398      .   S
    C31    O627      0.54482      .   S
    C131   O627      0.54482      .   S
    C86    O628      0.54476      .   S
    C226   O628      0.54476      .   S
    C190   O629      0.70432      .   S
    C189   O629      0.70432      .   S
    C292   O630      0.64630      .   S
    C135   O630      0.64630      .   S
    C332   O631      0.64636      .   S
    C230   O631      0.64636      .   S
    C333   O632      0.62053      .   S
    C230   O632      0.62053      .   S
    C293   O633      0.62066      .   S
    C135   O633      0.62066      .   S
    C230   O634      0.75556      .   S
    C227   O634      0.75556      .   S
    C135   O635      0.75607      .   S
    C132   O635      0.75607      .   S
    C226   O636      0.70026      .   S
    C227   O636      0.70026      .   S
    C226   O637      0.69322      .   S
    C225   O637      0.69322      .   S
    C131   O638      0.70043      .   S
    C132   O638      0.70043  1_655   S
    C131   O639      0.69343      .   S
    C130   O639      0.69343      .   S
    C168   O640      0.54489      .   S
    C52    O640      0.54489      .   S
    C168   O641      0.69343      .   S
    C169   O641      0.69343      .   S
    C187   O642      0.54503      .   S
    C63    O642      0.54503      .   S
    C187   O643      0.69345      .   S
    C188   O643      0.69345      .   S
    C85    O644      0.54504      .   S
    C225   O644      0.54504      .   S
    C30    O645      0.54495      .   S
    C130   O645      0.54495      .   S
    C170   O646      0.60178  1_455   S
    C169   O646      0.60178      .   S
    C170   O647      0.85149      .   S
    C173   O647      0.85149      .   S
    C189   O648      0.70050      .   S
    C188   O648      0.70050      .   S
    C189   O649      0.75640      .   S
    C192   O649      0.75640      .   S
    C227   O650      0.70381      .   S
    C228   O650      0.70381      .   S
    C132   O651      0.70374      .   S
    C133   O651      0.70374      .   S
    C225   O652      0.67784      .   S
    C275   O652      0.67784      .   S
    C130   O653      0.67806      .   S
    C260   O653      0.67806      .   S
    C169   O654      0.54476      .   S
    C53    O654      0.54476      .   S
    C188   O655      0.54490      .   S
    C64    O655      0.54490      .   S
    C173   O656      0.62062      .   S
    C309   O656      0.62062      .   S
    C173   O657      0.64640      .   S
    C308   O657      0.64640      .   S
    C192   O658      0.62071      .   S
    C317   O658      0.62071      .   S
    C192   O659      0.64622      .   S
    C316   O659      0.64622      .   S
    C34    O660      0.54605      .   S
    C138   O660      0.54605      .   S
    C89    O661      0.54602      .   S
    C233   O661      0.54602      .   S
    C308   O662      0.98853      .   S
    C11    O662      0.98853      .   S
    C316   O663      0.98891      .   S
    C5     O663      0.98891      .   S
    C228   O664      0.69802      .   S
    C229   O664      0.69802      .   S
    C228   O665      0.74607      .   S
    C231   O665      0.74607      .   S
    C133   O666      0.69817  1_655   S
    C134   O666      0.69817      .   S
    C133   O667      0.74574      .   S
    C136   O667      0.74574      .   S
    C275   O668      0.67462      .   S
    C229   O668      0.67462      .   S
    C275   O669      1.02514      .   S
    C11    O669      1.02514      .   S
    C260   O670      0.67456      .   S
    C134   O670      0.67456      .   S
    C260   O671      1.03001      .   S
    C5     O671      1.03001      .   S
    C33    O672      0.54487      .   S
    C137   O672      0.54487      .   S
    C88    O673      0.54485      .   S
    C232   O673      0.54485      .   S
    C138   O674      0.69508      .   S
    C137   O674      0.69508      .   S
    C138   O675      0.69812      .   S
    C139   O675      0.69812      .   S
    C233   O676      0.69510      .   S
    C232   O676      0.69510      .   S
    C233   O677      0.69816      .   S
    C234   O677      0.69816      .   S
    C294   O678      0.63849      .   S
    C136   O678      0.63849      .   S
    C294   O679      1.08663      .   S
    C2     O679      1.08663      .   S
    C334   O680      0.63891      .   S
    C231   O680      0.63891      .   S
    C334   O681      1.08290      .   S
    C12    O681      1.08290      .   S
    C35    O682      0.54494      .   S
    C139   O682      0.54494      .   S
    C90    O683      0.54507      .   S
    C234   O683      0.54507  1_655   S
    C229   O684      0.54523      .   S
    C87    O684      0.54523      .   S
    C134   O685      0.54502      .   S
    C32    O685      0.54502      .   S
    C137   O686      0.67794      .   S
    C261   O686      0.67794      .   S
    C232   O687      0.79262      .   S
    C276   O687      0.79262      .   S
    C231   O688      0.64084      .   S
    C335   O688      0.64084      .   S
    C136   O689      0.64107      .   S
    C295   O689      0.64107      .   S
    C139   O690      0.69801      .   S
    C140   O690      0.69801      .   S
    C234   O691      0.69815      .   S
    C235   O691      0.69815      .   S
    C11    O692      0.98804  1_565   S
    C298   O692      0.98804      .   S
    C11    O693      1.02594      .   S
    C271   O693      1.02594      .   S
    C5     O694      0.98719      .   S
    C322   O694      0.98719      .   S
    C5     O695      1.02271      .   S
    C262   O695      1.02271      .   S
    C73    O696      0.54549      .   S
    C203   O696      0.54549      .   S
    C40    O697      0.54557      .   S
    C146   O697      0.54557      .   S
    C261   O698      0.99919      .   S
    C2     O698      0.99919      .   S
    C261   O699      0.67804      .   S
    C141   O699      0.67804      .   S
    C298   O700      0.65011      .   S
    C148   O700      0.65011      .   S
    C322   O701      0.65015      .   S
    C205   O701      0.65015      .   S
    C276   O702      0.89515  1_545   S
    C12    O702      0.89515      .   S
    C276   O703      0.67785      .   S
    C236   O703      0.67785      .   S
    C335   O704      1.03744      .   S
    C12    O704      1.03744      .   S
    C295   O705      1.03416      .   S
    C2     O705      1.03416      .   S
    C140   O706      0.69413      .   S
    C141   O706      0.69413      .   S
    C140   O707      0.54443      .   S
    C36    O707      0.54443      .   S
    C235   O708      0.81882      .   S
    C236   O708      0.81882      .   S
    C235   O709      0.54434  1_655   S
    C91    O709      0.54434      .   S
    C203   O710      0.67471      .   S
    C271   O710      0.67471      .   S
    C203   O711      0.69743      .   S
    C202   O711      0.69743      .   S
    C146   O712      0.67477      .   S
    C262   O712      0.67477      .   S
    C146   O713      0.69760      .   S
    C145   O713      0.69760      .   S
    C12    O714      0.97093      .   S
    C328   O714      0.97093      .   S
    C2     O715      0.97393      .   S
    C288   O715      0.97393      .   S
    C141   O716      0.54480      .   S
    C37    O716      0.54480      .   S
    C236   O717      0.46348  1_545   S
    C92    O717      0.46348      .   S
    C271   O718      0.66553      .   S
    C199   O718      0.66553      .   S
    C262   O719      0.67663      .   S
    C142   O719      0.67663      .   S
    C205   O720      0.62027      .   S
    C323   O720      0.62027      .   S
    C205   O721      0.75317      .   S
    C202   O721      0.75317      .   S
    C148   O722      0.62009      .   S
    C299   O722      0.62009      .   S
    C148   O723      0.75394      .   S
    C145   O723      0.75394      .   S
    C202   O724      0.70238      .   S
    C201   O724      0.70238      .   S
    C145   O725      0.70261      .   S
    C144   O725      0.70261      .   S
    C288   O726      0.64994      .   S
    C128   O726      0.64994      .   S
    C328   O727      0.65018      .   S
    C223   O727      0.65018      .   S
    C199   O728      0.54647      .   S
    C71    O728      0.54647      .   S
    C199   O729      0.70232      .   S
    C200   O729      0.70232      .   S
    C142   O730      0.54413      .   S
    C38    O730      0.54413      .   S
    C142   O731      0.69381      .   S
    C143   O731      0.69381      .   S
    C201   O732      0.69938      .   S
    C200   O732      0.69938      .   S
    C144   O733      0.69952      .   S
    C143   O733      0.69952      .   S
    C128   O734      0.62496      .   S
    C289   O734      0.62496      .   S
    C223   O735      0.62459      .   S
    C329   O735      0.62459      .   S
