# CIF file generated by openbabel 2.4.90, see http://openbabel.sf.net
data_I
_chemical_name_common ''
_cell_length_a 13.971
_cell_length_b 15.661
_cell_length_c 19.606
_cell_angle_alpha 89.992
_cell_angle_beta 90.005
_cell_angle_gamma 90.014
_space_group_name_H-M_alt 'P 1'
_space_group_name_Hall 'P 1'
loop_
    _symmetry_equiv_pos_as_xyz
    x,y,z
loop_
    _atom_site_label
    _atom_site_type_symbol
    _atom_site_fract_x
    _atom_site_fract_y
    _atom_site_fract_z
    _atom_site_occupancy
    Cd0     Cd   0.80967   0.14076   0.52817   1.000
    Cd1     Cd   0.30922   0.36028   0.47142   1.000
    Cd2     Cd   0.19068   0.63984   0.97150   1.000
    Cd3     Cd   0.69089   0.86001   0.02850   1.000
    C4      C    0.08422   0.77348   0.02344   1.000
    C5      C    0.87718   0.97754   0.49685   1.000
    C6      C    0.41592   0.22668   0.52329   1.000
    C7      C    0.62292   0.02273   0.99662   1.000
    C8      C    0.91535   0.27556   0.47644   1.000
    C9      C    0.12268   0.47711   0.00000   1.000
    C10     C    0.58408   0.72625   0.97693   1.000
    C11     C    0.37721   0.52297   0.50300   1.000
    O12     O    0.17513   0.77444   0.03288   1.000
    O13     O    0.04160   0.71178   0.99438   1.000
    O14     O    0.85025   0.02628   0.44783   1.000
    O15     O    0.87038   0.00000   0.55888   1.000
    O16     O    0.32501   0.22559   0.53271   1.000
    O17     O    0.45842   0.28847   0.49428   1.000
    O18     O    0.64996   0.97410   0.94761   1.000
    O19     O    0.62972   0.99930   0.05868   1.000
    O20     O    0.82451   0.27707   0.46712   1.000
    O21     O    0.95776   0.21365   0.50543   1.000
    O22     O    0.14961   0.52587   0.05214   1.000
    O23     O    0.12959   0.50045   0.94111   1.000
    O24     O    0.67504   0.72523   0.96768   1.000
    O25     O    0.54146   0.78811   0.00571   1.000
    O26     O    0.35028   0.47424   0.55220   1.000
    O27     O    0.37038   0.49958   0.44124   1.000
loop_
    _geom_bond_atom_site_label_1
    _geom_bond_atom_site_label_2
    _geom_bond_distance
    _geom_bond_site_symmetry_2
    _ccdc_geom_bond_type
    C9     O22       1.33024      .   S
    C9     O23       1.21487  1_554   S
    O25    Cd3       2.41343      .   S
    O25    C10       1.26960  1_554   S
    C4     O12       1.28353      .   S
    C4     O13       1.26985  1_554   S
    Cd3    O19       2.41676      .   S
    Cd3    O18       2.45651  1_554   S
    Cd3    O24       2.43445  1_554   S
    O12    Cd2       2.43715  1_554   S
    O22    Cd2       2.45238  1_554   S
    O19    C7        1.27435  1_564   S
    O27    Cd1       2.41629      .   S
    O27    C11       1.26871      .   S
    O14    C5        1.28367  1_545   S
    O14    Cd0       2.45328      .   S
    O20    C8        1.28238      .   S
    O20    Cd0       2.45596      .   S
    Cd1    O17       2.41074      .   S
    Cd1    O16       2.43759      .   S
    Cd1    O26       2.45412      .   S
    C8     O21       1.27053      .   S
    O17    C6        1.26976      .   S
    C5     O15       1.26963  1_565   S
    C11    O26       1.28620      .   S
    O21    Cd0       2.40443      .   S
    C6     O16       1.28357      .   S
    Cd0    O15       2.43770      .   S
    O23    Cd2       2.41840      .   S
    O18    C7        1.28312  1_565   S
    O24    C10       1.28374      .   S
    Cd2    O13       2.41044      .   S
