# CIF file generated by openbabel 2.4.90, see http://openbabel.sf.net
data_I
_chemical_name_common ''
_cell_length_a 13.971
_cell_length_b 15.661
_cell_length_c 19.606
_cell_angle_alpha 89.992
_cell_angle_beta 90.005
_cell_angle_gamma 90.014
_space_group_name_H-M_alt 'P 1'
_space_group_name_Hall 'P 1'
loop_
    _symmetry_equiv_pos_as_xyz
    x,y,z
loop_
    _atom_site_label
    _atom_site_type_symbol
    _atom_site_fract_x
    _atom_site_fract_y
    _atom_site_fract_z
    _atom_site_occupancy
    C0      C    0.08422   0.77348   0.02344   1.000
    C1      C    0.87718   0.97754   0.49685   1.000
    C2      C    0.41592   0.22668   0.52329   1.000
    C3      C    0.62292   0.02273   0.99662   1.000
    C4      C    0.91535   0.27556   0.47644   1.000
    C5      C    0.12268   0.47711   0.00000   1.000
    C6      C    0.58408   0.72625   0.97693   1.000
    C7      C    0.37721   0.52297   0.50300   1.000
