# CIF file generated by openbabel 2.4.90, see http://openbabel.sf.net
data_I
_chemical_name_common ''
_cell_length_a 13.971
_cell_length_b 15.661
_cell_length_c 19.606
_cell_angle_alpha 89.992
_cell_angle_beta 90.005
_cell_angle_gamma 90.014
_space_group_name_H-M_alt 'P 1'
_space_group_name_Hall 'P 1'
loop_
    _symmetry_equiv_pos_as_xyz
    x,y,z
loop_
    _atom_site_label
    _atom_site_type_symbol
    _atom_site_fract_x
    _atom_site_fract_y
    _atom_site_fract_z
    _atom_site_occupancy
    N0      N    0.69814   0.26320   0.83830   1.000
    N1      N    0.41154   0.69560   0.09807   1.000
    N2      N    0.08906   0.30481   0.59791   1.000
    N3      N    0.19817   0.23611   0.16147   1.000
    N4      N    0.80178   0.73688   0.33854   1.000
    N5      N    0.91120   0.80422   0.90200   1.000
    N6      N    0.58839   0.19592   0.40189   1.000
    N7      N    0.30184   0.76323   0.66142   1.000
    Zr8     Zr   0.87216   0.13012   0.49725   1.000
    O9      O    0.76437   0.14631   0.47817   1.000
    O10     O    0.81151   0.17110   0.60477   1.000
    O11     O    0.94426   0.21999   0.51441   1.000
    O12     O    0.86128   0.98271   0.45563   1.000
    Zr13    Zr   0.62772   0.87082   0.99739   1.000
    O14     O    0.73558   0.85434   0.97832   1.000
    O15     O    0.68853   0.82950   0.10498   1.000
    O16     O    0.63866   0.01785   0.95559   1.000
    O17     O    0.55576   0.78099   0.01464   1.000
    Zr18    Zr   0.37235   0.37112   0.50259   1.000
    O19     O    0.36139   0.51807   0.54327   1.000
    O20     O    0.26457   0.35476   0.52163   1.000
    O21     O    0.31152   0.32953   0.39500   1.000
    O22     O    0.44427   0.28134   0.48539   1.000
    Zr23    Zr   0.12764   0.62900   0.00221   1.000
    O24     O    0.05568   0.71880   0.98526   1.000
    O25     O    0.23556   0.64548   0.02151   1.000
    O26     O    0.18843   0.67038   0.89482   1.000
    O27     O    0.13857   0.48185   0.04371   1.000
loop_
    _geom_bond_atom_site_label_1
    _geom_bond_atom_site_label_2
    _geom_bond_distance
    _geom_bond_site_symmetry_2
    _ccdc_geom_bond_type
    Zr8    O9        1.57225      .   S
    N6     O9        2.98077      .   S
    Zr8    O10       2.36117      .   S
    N0     O10       5.05526      .   S
    Zr8    O11       1.76299      .   S
    N2     O11       2.92162  1_455   S
    Zr8    O12       2.45343  1_545   S
    N4     O12       4.55886      .   S
    Zr13   O14       1.57390      .   S
    N5     O14       2.97942      .   S
    Zr13   O15       2.36414  1_556   S
    N4     O15       5.05723      .   S
    Zr13   O16       2.44877  1_565   S
    N0     O16       4.55405      .   S
    Zr13   O17       1.76172  1_556   S
    N1     O17       2.91929      .   S
    Zr18   O19       2.44074      .   S
    N7     O19       4.56105      .   S
    Zr18   O20       1.57224      .   S
    N2     O20       2.97672      .   S
    Zr18   O21       2.36551      .   S
    N3     O21       5.06080      .   S
    Zr18   O22       1.76104      .   S
    N6     O22       2.91998      .   S
    Zr23   O24       1.76071  1_554   S
    N5     O24       2.92046  1_655   S
    Zr23   O25       1.57569      .   S
    N1     O25       2.98539      .   S
    Zr23   O26       2.36087  1_554   S
    N7     O26       5.05612      .   S
    Zr23   O27       2.44865      .   S
    N3     O27       4.56431      .   S
