# CIF file generated by openbabel 2.4.90, see http://openbabel.sf.net
data_I
_chemical_name_common ''
_cell_length_a 15.494
_cell_length_b 15.52
_cell_length_c 15.511
_cell_angle_alpha 74.375
_cell_angle_beta 74.601
_cell_angle_gamma 74.551
_space_group_name_H-M_alt 'P 1'
_space_group_name_Hall 'P 1'
loop_
    _symmetry_equiv_pos_as_xyz
    x,y,z
loop_
    _atom_site_label
    _atom_site_type_symbol
    _atom_site_fract_x
    _atom_site_fract_y
    _atom_site_fract_z
    _atom_site_occupancy
    N0      N    0.49989   0.50004   0.99992   1.000
    N1      N    0.99996   0.50004   0.49992   1.000
    N2      N    0.50007   0.00003   0.49987   1.000
    Zr3     Zr   0.99990   0.50001   0.99993   1.000
    O4      O    0.18036   0.47983   0.99597   1.000
    O5      O    0.00400   0.52005   0.81942   1.000
    O6      O    0.99585   0.48000   0.18043   1.000
    O7      O    0.81944   0.52021   0.00387   1.000
    Zr8     Zr   0.00008   0.00002   0.49993   1.000
    O9      O    0.81962   0.00405   0.52007   1.000
    O10     O    0.00407   0.81955   0.51992   1.000
    O11     O    0.99601   0.18051   0.47994   1.000
    O12     O    0.18053   0.99601   0.47975   1.000
    Zr13    Zr   0.49998   0.00003   0.99988   1.000
    O14     O    0.47995   0.99596   0.18031   1.000
    O15     O    0.47991   0.18046   0.99587   1.000
    O16     O    0.52008   0.00411   0.81944   1.000
    O17     O    0.51999   0.81961   0.00393   1.000
loop_
    _geom_bond_atom_site_label_1
    _geom_bond_atom_site_label_2
    _geom_bond_distance
    _geom_bond_site_symmetry_2
    _ccdc_geom_bond_type
    Zr3    O4        2.71513  1_655   S
    N0     O4        5.06080      .   S
    Zr3    O5        2.71786  1_655   S
    N1     O5        5.06595  1_655   S
    Zr3    O6        2.71810  1_556   S
    N1     O6        5.06627      .   S
    Zr3    O7        2.71526  1_556   S
    N0     O7        5.06086  1_556   S
    Zr8    O9        2.71527  1_455   S
    N2     O9        5.06101      .   S
    Zr8    O10       2.71948  1_545   S
    N1     O10       5.06912  1_655   S
    Zr8    O11       2.71939  1_455   S
    N1     O11       5.06880      .   S
    Zr8    O12       2.71516  1_545   S
    N2     O12       5.06059  1_545   S
    Zr13   O14       2.71782  1_546   S
    N2     O14       5.06654  1_545   S
    Zr13   O15       2.71922      .   S
    N0     O15       5.06919      .   S
    Zr13   O16       2.71782      .   S
    N2     O16       5.06620      .   S
    Zr13   O17       2.71918  1_546   S
    N0     O17       5.06946  1_556   S
