# CIF file generated by openbabel 2.4.90, see http://openbabel.sf.net
data_I
_chemical_name_common ''
_cell_length_a 19.592
_cell_length_b 14.263
_cell_length_c 14.27
_cell_angle_alpha 102.889
_cell_angle_beta 103.382
_cell_angle_gamma 103.151
_space_group_name_H-M_alt 'P 1'
_space_group_name_Hall 'P 1'
loop_
    _symmetry_equiv_pos_as_xyz
    x,y,z
loop_
    _atom_site_label
    _atom_site_type_symbol
    _atom_site_fract_x
    _atom_site_fract_y
    _atom_site_fract_z
    _atom_site_occupancy
    N0      N    0.87220   0.71884   0.80379   1.000
    N1      N    0.37219   0.71885   0.80379   1.000
    N2      N    0.62215   0.80505   0.72201   1.000
    N3      N    0.12215   0.80504   0.72205   1.000
    N4      N    0.50003   0.00003   0.49998   1.000
    N5      N    0.00003   0.00005   0.49998   1.000
    N6      N    0.25003   0.50002   0.00007   1.000
    N7      N    0.62787   0.28115   0.19618   1.000
    N8      N    0.12787   0.28115   0.19619   1.000
    N9      N    0.75004   0.50001   0.99998   1.000
    N10     N    0.37790   0.19498   0.27790   1.000
    N11     N    0.87791   0.19498   0.27789   1.000
    Zr12    Zr   0.87547   0.21469   0.78168   1.000
    O13     O    0.74858   0.13948   0.68753   1.000
    O14     O    0.00213   0.30981   0.85807   1.000
    Zr15    Zr   0.37547   0.21470   0.78166   1.000
    O16     O    0.24857   0.13950   0.68752   1.000
    O17     O    0.50213   0.30981   0.85803   1.000
    Zr18    Zr   0.62460   0.78529   0.21829   1.000
    O19     O    0.49794   0.69019   0.14196   1.000
    O20     O    0.75149   0.86052   0.31243   1.000
    Zr21    Zr   0.12460   0.78528   0.21828   1.000
    O22     O    0.99794   0.69019   0.14193   1.000
    O23     O    0.25149   0.86052   0.31243   1.000
    O24     O    0.87286   0.20963   0.92222   1.000
    O25     O    0.87882   0.20895   0.63904   1.000
    O26     O    0.87784   0.07423   0.78743   1.000
    O27     O    0.87187   0.35741   0.78799   1.000
    O28     O    0.62721   0.79036   0.07773   1.000
    O29     O    0.62126   0.79104   0.36091   1.000
    O30     O    0.62223   0.92576   0.21254   1.000
    O31     O    0.62820   0.64257   0.21198   1.000
    O32     O    0.12720   0.79036   0.07774   1.000
    O33     O    0.12125   0.79103   0.36091   1.000
    O34     O    0.12223   0.92575   0.21254   1.000
    O35     O    0.12820   0.64257   0.21198   1.000
    O36     O    0.37286   0.20964   0.92221   1.000
    O37     O    0.37881   0.20896   0.63904   1.000
    O38     O    0.37784   0.07424   0.78742   1.000
    O39     O    0.37187   0.35742   0.78798   1.000
loop_
    _geom_bond_atom_site_label_1
    _geom_bond_atom_site_label_2
    _geom_bond_distance
    _geom_bond_site_symmetry_2
    _ccdc_geom_bond_type
    Zr12   O13       2.39461      .   S
    N4     O13       4.69219      .   S
    Zr12   O14       2.39637  1_655   S
    N6     O14       4.69590  1_554   S
    Zr15   O16       2.39455      .   S
    N5     O16       4.69209      .   S
    Zr15   O17       2.39642      .   S
    N9     O17       4.69602      .   S
    Zr18   O19       2.39632      .   S
    N6     O19       4.69590      .   S
    Zr18   O20       2.39449      .   S
    N5     O20       4.69208  1_445   S
    Zr21   O22       2.39623  1_455   S
    N9     O22       4.69576  1_556   S
    Zr21   O23       2.39453      .   S
    N4     O23       4.69212  1_545   S
    Zr12   O24       2.03479      .   S
    N11    O24       5.10532  1_554   S
    Zr12   O25       2.03559      .   S
    N11    O25       5.10856      .   S
    Zr12   O26       2.03381      .   S
    N0     O26       5.10344  1_565   S
    Zr12   O27       2.03555      .   S
    N0     O27       5.10799      .   S
    Zr18   O28       2.03503      .   S
    N2     O28       5.10610  1_556   S
    Zr18   O29       2.03535      .   S
    N2     O29       5.10782      .   S
    Zr18   O30       2.03388      .   S
    N7     O30       5.10356  1_545   S
    Zr18   O31       2.03547      .   S
    N7     O31       5.10786      .   S
    Zr21   O32       2.03490      .   S
    N3     O32       5.10566  1_556   S
    Zr21   O33       2.03549      .   S
    N3     O33       5.10826      .   S
    Zr21   O34       2.03389      .   S
    N8     O34       5.10356  1_545   S
    Zr21   O35       2.03547      .   S
    N8     O35       5.10785      .   S
    Zr15   O36       2.03478      .   S
    N10    O36       5.10561  1_554   S
    Zr15   O37       2.03552      .   S
    N10    O37       5.10836      .   S
    Zr15   O38       2.03383      .   S
    N1     O38       5.10347  1_565   S
    Zr15   O39       2.03553      .   S
    N1     O39       5.10797      .   S
