# CIF file generated by openbabel 2.4.90, see http://openbabel.sf.net
data_I
_chemical_name_common ''
_cell_length_a 19.592
_cell_length_b 14.263
_cell_length_c 14.27
_cell_angle_alpha 102.889
_cell_angle_beta 103.382
_cell_angle_gamma 103.151
_space_group_name_H-M_alt 'P 1'
_space_group_name_Hall 'P 1'
loop_
    _symmetry_equiv_pos_as_xyz
    x,y,z
loop_
    _atom_site_label
    _atom_site_type_symbol
    _atom_site_fract_x
    _atom_site_fract_y
    _atom_site_fract_z
    _atom_site_occupancy
    N0      N    0.87220   0.71884   0.80379   1.000
    N1      N    0.37219   0.71885   0.80379   1.000
    N2      N    0.62215   0.80505   0.72201   1.000
    N3      N    0.12215   0.80504   0.72205   1.000
    N4      N    0.50003   0.00003   0.49998   1.000
    N5      N    0.00003   0.00005   0.49998   1.000
    N6      N    0.25003   0.50002   0.00007   1.000
    N7      N    0.62787   0.28115   0.19618   1.000
    N8      N    0.12787   0.28115   0.19619   1.000
    N9      N    0.75004   0.50001   0.99998   1.000
    N10     N    0.37790   0.19498   0.27790   1.000
    N11     N    0.87791   0.19498   0.27789   1.000
    Zr12    Zr   0.87547   0.21469   0.78168   1.000
    O13     O    0.85593   0.19641   0.91040   1.000
    O14     O    0.86141   0.19898   0.62755   1.000
    O15     O    0.74858   0.13948   0.68753   1.000
    O16     O    0.85447   0.34598   0.77798   1.000
    O17     O    0.86090   0.06245   0.77420   1.000
    O18     O    0.89623   0.21893   0.65053   1.000
    O19     O    0.88979   0.22285   0.93404   1.000
    O20     O    0.00213   0.30981   0.85807   1.000
    O21     O    0.89478   0.08601   0.80066   1.000
    O22     O    0.88928   0.36884   0.79799   1.000
    Zr23    Zr   0.37547   0.21470   0.78166   1.000
    O24     O    0.24857   0.13950   0.68752   1.000
    O25     O    0.35593   0.19642   0.91038   1.000
    O26     O    0.36090   0.06246   0.77419   1.000
    O27     O    0.36140   0.19899   0.62755   1.000
    O28     O    0.35446   0.34599   0.77797   1.000
    O29     O    0.38978   0.22286   0.93403   1.000
    O30     O    0.39622   0.21894   0.65053   1.000
    O31     O    0.50213   0.30981   0.85803   1.000
    O32     O    0.38928   0.36885   0.79798   1.000
    O33     O    0.39478   0.08602   0.80066   1.000
    Zr34    Zr   0.62460   0.78529   0.21829   1.000
    O35     O    0.49794   0.69019   0.14196   1.000
    O36     O    0.61028   0.77715   0.06591   1.000
    O37     O    0.60384   0.78107   0.34942   1.000
    O38     O    0.61079   0.63115   0.20197   1.000
    O39     O    0.60529   0.91398   0.19931   1.000
    O40     O    0.75149   0.86052   0.31243   1.000
    O41     O    0.64561   0.65400   0.22199   1.000
    O42     O    0.64413   0.80358   0.08955   1.000
    O43     O    0.63867   0.80100   0.37240   1.000
    O44     O    0.63917   0.93753   0.22578   1.000
    Zr45    Zr   0.12460   0.78528   0.21828   1.000
    O46     O    0.11027   0.77715   0.06592   1.000
    O47     O    0.10384   0.78106   0.34942   1.000
    O48     O    0.99794   0.69019   0.14193   1.000
    O49     O    0.10529   0.91398   0.19931   1.000
    O50     O    0.11079   0.63114   0.20197   1.000
    O51     O    0.25149   0.86052   0.31243   1.000
    O52     O    0.13866   0.80100   0.37240   1.000
    O53     O    0.14561   0.65399   0.22198   1.000
    O54     O    0.14413   0.80357   0.08956   1.000
    O55     O    0.13916   0.93752   0.22577   1.000
loop_
    _geom_bond_atom_site_label_1
    _geom_bond_atom_site_label_2
    _geom_bond_distance
    _geom_bond_site_symmetry_2
    _ccdc_geom_bond_type
    Zr12   O13       2.02044      .   S
    N11    O13       5.16662  1_554   S
    Zr12   O14       2.10586      .   S
    N11    O14       5.06286      .   S
    Zr12   O15       2.39461      .   S
    N4     O15       4.69219      .   S
    Zr12   O16       2.01583      .   S
    N0     O16       5.17350      .   S
    Zr12   O17       2.09960      .   S
    N0     O17       5.06155  1_565   S
    Zr12   O18       2.01563      .   S
    N11    O18       5.17420      .   S
    Zr12   O19       2.09988      .   S
    N11    O19       5.06414  1_554   S
    Zr12   O20       2.39637  1_655   S
    N6     O20       4.69590  1_554   S
    Zr12   O21       2.01878      .   S
    N0     O21       5.16545  1_565   S
    Zr12   O22       2.10558      .   S
    N0     O22       5.06243      .   S
    Zr23   O24       2.39455      .   S
    N5     O24       4.69209      .   S
    Zr23   O25       2.02033      .   S
    N10    O25       5.16700  1_554   S
    Zr23   O26       2.09960      .   S
    N1     O26       5.06159  1_565   S
    Zr23   O27       2.10580      .   S
    N10    O27       5.06266      .   S
    Zr23   O28       2.01582      .   S
    N1     O28       5.17346      .   S
    Zr23   O29       2.09996      .   S
    N10    O29       5.06434  1_554   S
    Zr23   O30       2.01556      .   S
    N10    O30       5.17400      .   S
    Zr23   O31       2.39642      .   S
    N9     O31       4.69602      .   S
    Zr23   O32       2.10557      .   S
    N1     O32       5.06242      .   S
    Zr23   O33       2.01880      .   S
    N1     O33       5.16547  1_565   S
    Zr34   O35       2.39632      .   S
    N6     O35       4.69590      .   S
    Zr34   O36       2.10015      .   S
    N2     O36       5.06489  1_556   S
    Zr34   O37       2.01540      .   S
    N2     O37       5.17347      .   S
    Zr34   O38       2.10543      .   S
    N7     O38       5.06238      .   S
    Zr34   O39       2.01890      .   S
    N7     O39       5.16549  1_545   S
    Zr34   O40       2.39449      .   S
    N5     O40       4.69208  1_445   S
    Zr34   O41       2.01584      .   S
    N7     O41       5.17329      .   S
    Zr34   O42       2.02064      .   S
    N2     O42       5.16743  1_556   S
    Zr34   O43       2.10564      .   S
    N2     O43       5.06212      .   S
    Zr34   O44       2.09960      .   S
    N7     O44       5.06174  1_545   S
    Zr45   O46       2.10002      .   S
    N3     O46       5.06445  1_556   S
    Zr45   O47       2.01553      .   S
    N3     O47       5.17390      .   S
    Zr45   O48       2.39623  1_455   S
    N9     O48       4.69576  1_556   S
    Zr45   O49       2.01893      .   S
    N8     O49       5.16548  1_545   S
    Zr45   O50       2.10540      .   S
    N8     O50       5.06239      .   S
    Zr45   O51       2.39453      .   S
    N4     O51       4.69212  1_545   S
    Zr45   O52       2.10576      .   S
    N3     O52       5.06257      .   S
    Zr45   O53       2.01586      .   S
    N8     O53       5.17326      .   S
    Zr45   O54       2.02051      .   S
    N3     O54       5.16698  1_556   S
    Zr45   O55       2.09959      .   S
    N8     O55       5.06175  1_545   S
