# CIF file generated by openbabel 2.4.90, see http://openbabel.sf.net
data_I
_chemical_name_common ''
_cell_length_a 19.592
_cell_length_b 14.263
_cell_length_c 14.27
_cell_angle_alpha 102.889
_cell_angle_beta 103.382
_cell_angle_gamma 103.151
_space_group_name_H-M_alt 'P 1'
_space_group_name_Hall 'P 1'
loop_
    _symmetry_equiv_pos_as_xyz
    x,y,z
loop_
    _atom_site_label
    _atom_site_type_symbol
    _atom_site_fract_x
    _atom_site_fract_y
    _atom_site_fract_z
    _atom_site_occupancy
    Zr0     Zr   0.45311   0.26754   0.83477   1.000
    Zr1     Zr   0.95312   0.26753   0.83478   1.000
    Zr2     Zr   0.29782   0.16186   0.72856   1.000
    Zr3     Zr   0.79783   0.16184   0.72857   1.000
    Zr4     Zr   0.04696   0.73248   0.16519   1.000
    Zr5     Zr   0.54696   0.73248   0.16519   1.000
    Zr6     Zr   0.20224   0.83809   0.27138   1.000
    Zr7     Zr   0.70224   0.83810   0.27139   1.000
    O8      O    0.37547   0.21470   0.78166   1.000
    O9      O    0.87547   0.21469   0.78168   1.000
    O10     O    0.12460   0.78528   0.21828   1.000
    O11     O    0.62460   0.78529   0.21829   1.000
    N12     N    0.87220   0.71884   0.80379   1.000
    O13     O    0.91409   0.95733   0.81965   1.000
    O14     O    0.90309   0.52300   0.81431   1.000
    O15     O    0.83346   0.47727   0.77428   1.000
    O16     O    0.84634   0.91021   0.76673   1.000
    N17     N    0.37219   0.71885   0.80379   1.000
    O18     O    0.41408   0.95734   0.81965   1.000
    O19     O    0.40309   0.52301   0.81430   1.000
    O20     O    0.33346   0.47728   0.77428   1.000
    O21     O    0.34633   0.91022   0.76671   1.000
    N22     N    0.62215   0.80505   0.72201   1.000
    O23     O    0.66366   0.82187   0.96082   1.000
    O24     O    0.65273   0.81672   0.52650   1.000
    O25     O    0.58309   0.77685   0.48055   1.000
    O26     O    0.59596   0.76901   0.91353   1.000
    N27     N    0.12215   0.80504   0.72205   1.000
    O28     O    0.16366   0.82186   0.96083   1.000
    O29     O    0.15273   0.81671   0.52651   1.000
    O30     O    0.08308   0.77684   0.48056   1.000
    O31     O    0.09595   0.76901   0.91355   1.000
    N32     N    0.50003   0.00003   0.49998   1.000
    O33     O    0.62168   0.06427   0.59338   1.000
    O34     O    0.37838   0.93575   0.40658   1.000
    N35     N    0.00003   0.00005   0.49998   1.000
    O36     O    0.12168   0.06429   0.59338   1.000
    O37     O    0.87838   0.93576   0.40656   1.000
    N38     N    0.25003   0.50002   0.00007   1.000
    O39     O    0.12878   0.40493   0.93446   1.000
    O40     O    0.37128   0.59510   0.06562   1.000
    N41     N    0.62787   0.28115   0.19618   1.000
    O42     O    0.58598   0.04267   0.18033   1.000
    O43     O    0.59698   0.47700   0.18566   1.000
    O44     O    0.66662   0.52270   0.22568   1.000
    O45     O    0.65374   0.08977   0.23327   1.000
    N46     N    0.12787   0.28115   0.19619   1.000
    O47     O    0.08598   0.04267   0.18033   1.000
    O48     O    0.09698   0.47700   0.18566   1.000
    O49     O    0.16662   0.52270   0.22568   1.000
    O50     O    0.15373   0.08977   0.23326   1.000
    N51     N    0.75004   0.50001   0.99998   1.000
    O52     O    0.62879   0.40493   0.93440   1.000
    O53     O    0.87129   0.59509   0.06557   1.000
    N54     N    0.37790   0.19498   0.27790   1.000
    O55     O    0.33639   0.17814   0.03909   1.000
    O56     O    0.34733   0.18328   0.47343   1.000
    O57     O    0.41698   0.22317   0.51939   1.000
    O58     O    0.40410   0.23102   0.08640   1.000
    N59     N    0.87791   0.19498   0.27789   1.000
    O60     O    0.83639   0.17814   0.03912   1.000
    O61     O    0.84734   0.18327   0.47343   1.000
    O62     O    0.91698   0.22317   0.51939   1.000
    O63     O    0.90411   0.23101   0.08640   1.000
loop_
    _geom_bond_atom_site_label_1
    _geom_bond_atom_site_label_2
    _geom_bond_distance
    _geom_bond_site_symmetry_2
    _ccdc_geom_bond_type
    Zr0    O8        1.46503      .   S
    Zr2    O8        1.46503      .   S
    Zr1    O9        1.46507      .   S
    Zr3    O9        1.46507      .   S
    Zr4    O10       1.46485      .   S
    Zr6    O10       1.46485      .   S
    Zr5    O11       1.46488      .   S
    Zr7    O11       1.46488      .   S
    N12    O13       3.25508      .   S
    Zr1    O13       4.26205  1_545   S
    N12    O14       3.01761      .   S
    Zr1    O14       4.03607      .   S
    N12    O15       3.26188      .   S
    Zr3    O15       4.26663      .   S
    N12    O16       3.02258      .   S
    Zr3    O16       4.03303  1_545   S
    N17    O18       3.25505      .   S
    Zr0    O18       4.26201  1_545   S
    N17    O19       3.01763      .   S
    Zr0    O19       4.03606      .   S
    N17    O20       3.26184      .   S
    Zr2    O20       4.26656      .   S
    N17    O21       3.02263      .   S
    Zr2    O21       4.03311  1_545   S
    N22    O23       3.25513      .   S
    Zr7    O23       4.26359  1_554   S
    N22    O24       3.01752      .   S
    Zr7    O24       4.03513      .   S
    N22    O25       3.26206      .   S
    Zr5    O25       4.26663      .   S
    N22    O26       3.02537      .   S
    Zr5    O26       4.03639  1_554   S
    N27    O28       3.25482      .   S
    Zr6    O28       4.26328  1_554   S
    N27    O29       3.01784      .   S
    Zr6    O29       4.03542      .   S
    N27    O30       3.26234      .   S
    Zr4    O30       4.26685      .   S
    N27    O31       3.02506      .   S
    Zr4    O31       4.03618  1_554   S
    N32    O33       2.29946      .   S
    Zr3    O33       3.33219      .   S
    N32    O34       2.29945  1_545   S
    Zr6    O34       3.33219      .   S
    N35    O36       2.29940      .   S
    Zr2    O36       3.33212      .   S
    N35    O37       2.29945  1_445   S
    Zr7    O37       3.33208      .   S
    N38    O39       2.30148  1_554   S
    Zr1    O39       3.33608  1_655   S
    N38    O40       2.30153      .   S
    Zr5    O40       3.33624      .   S
    N41    O42       3.25495      .   S
    Zr5    O42       4.26187  1_565   S
    N41    O43       3.01772      .   S
    Zr5    O43       4.03617      .   S
    N41    O44       3.26167      .   S
    Zr7    O44       4.26619      .   S
    N41    O45       3.02280      .   S
    Zr7    O45       4.03344  1_565   S
    N46    O47       3.25493      .   S
    Zr4    O47       4.26186  1_565   S
    N46    O48       3.01774      .   S
    Zr4    O48       4.03622      .   S
    N46    O49       3.26164      .   S
    Zr6    O49       4.26612      .   S
    N46    O50       3.02280      .   S
    Zr6    O50       4.03349  1_565   S
    N51    O52       2.30154      .   S
    Zr0    O52       3.33626      .   S
    N51    O53       2.30148  1_556   S
    Zr4    O53       3.33607  1_455   S
    N54    O55       3.25505      .   S
    Zr2    O55       4.26287  1_556   S
    N54    O56       3.01789      .   S
    Zr2    O56       4.03547      .   S
    N54    O57       3.26243      .   S
    Zr0    O57       4.26698      .   S
    N54    O58       3.02502      .   S
    Zr0    O58       4.03614  1_556   S
    N59    O60       3.25458      .   S
    Zr3    O60       4.26307  1_556   S
    N59    O61       3.01803      .   S
    Zr3    O61       4.03563      .   S
    N59    O62       3.26255      .   S
    Zr1    O62       4.26710      .   S
    N59    O63       3.02490      .   S
    Zr1    O63       4.03601  1_556   S
