# CIF file generated by openbabel 2.4.90, see http://openbabel.sf.net
data_I
_chemical_name_common ''
_cell_length_a 18.3
_cell_length_b 17.826
_cell_length_c 15.734
_cell_angle_alpha 90
_cell_angle_beta 90
_cell_angle_gamma 90
_space_group_name_H-M_alt 'P 1'
_space_group_name_Hall 'P 1'
loop_
    _symmetry_equiv_pos_as_xyz
    x,y,z
loop_
    _atom_site_label
    _atom_site_type_symbol
    _atom_site_fract_x
    _atom_site_fract_y
    _atom_site_fract_z
    _atom_site_occupancy
    C0      C    0.00000   0.25001   0.04646   1.000
    C1      C    0.50000   0.25001   0.04646   1.000
    C2      C    0.00000   0.75002   0.45353   1.000
    C3      C    0.50000   0.75002   0.45353   1.000
    C4      C    1.00000   0.75002   0.95352   1.000
    C5      C    0.50000   0.75002   0.95352   1.000
    C6      C    1.00000   0.25001   0.54645   1.000
    C7      C    0.50000   0.25001   0.54645   1.000
    C8      C    0.48732   0.42125   0.97794   1.000
    C9      C    0.98732   0.42125   0.97794   1.000
    C10     C    0.42144   0.50472   0.87628   1.000
    C11     C    0.92144   0.50472   0.87628   1.000
    C12     C    0.32852   0.30404   0.76462   1.000
    C13     C    0.82852   0.30404   0.76462   1.000
    C14     C    0.39369   0.23034   0.87639   1.000
    C15     C    0.89369   0.23034   0.87639   1.000
    C16     C    0.33417   0.43566   0.68441   1.000
    C17     C    0.83417   0.43566   0.68441   1.000
    C18     C    0.23037   0.45966   0.83585   1.000
    C19     C    0.73037   0.45966   0.83585   1.000
    C20     C    0.26175   0.36260   0.62725   1.000
    C21     C    0.76175   0.36259   0.62725   1.000
    C22     C    0.16602   0.28464   0.55910   1.000
    C23     C    0.66602   0.28464   0.55910   1.000
    C24     C    0.00717   0.35659   0.72750   1.000
    C25     C    0.50717   0.35659   0.72750   1.000
    C26     C    0.09771   0.43200   0.81001   1.000
    C27     C    0.59771   0.43200   0.81001   1.000
    C28     C    0.01268   0.07876   0.97794   1.000
    C29     C    0.51268   0.07876   0.97794   1.000
    C30     C    0.07856   0.99529   0.87628   1.000
    C31     C    0.57857   0.99529   0.87628   1.000
    C32     C    0.17148   0.19597   0.76462   1.000
    C33     C    0.67148   0.19597   0.76462   1.000
    C34     C    0.10631   0.26967   0.87639   1.000
    C35     C    0.60631   0.26967   0.87639   1.000
    C36     C    0.16583   0.06436   0.68441   1.000
    C37     C    0.66583   0.06435   0.68441   1.000
    C38     C    0.26964   0.04035   0.83580   1.000
    C39     C    0.76964   0.04035   0.83580   1.000
    C40     C    0.23825   0.13742   0.62725   1.000
    C41     C    0.73825   0.13742   0.62725   1.000
    C42     C    0.33398   0.21538   0.55910   1.000
    C43     C    0.83398   0.21538   0.55910   1.000
    C44     C    0.49283   0.14343   0.72750   1.000
    C45     C    0.99283   0.14343   0.72750   1.000
    C46     C    0.40229   0.06802   0.81001   1.000
    C47     C    0.90230   0.06802   0.81001   1.000
    C48     C    0.48732   0.57877   0.52203   1.000
    C49     C    0.98732   0.57877   0.52203   1.000
    C50     C    0.42144   0.49530   0.62300   1.000
    C51     C    0.92144   0.49530   0.62369   1.000
    C52     C    0.32852   0.69599   0.73535   1.000
    C53     C    0.82852   0.69599   0.73535   1.000
    C54     C    0.39369   0.76969   0.62350   1.000
    C55     C    0.89369   0.76969   0.62359   1.000
    C56     C    0.33417   0.56437   0.81557   1.000
    C57     C    0.83417   0.56437   0.81557   1.000
    C58     C    0.23037   0.54036   0.66412   1.000
    C59     C    0.73037   0.54036   0.66410   1.000
    C60     C    0.26175   0.63743   0.87272   1.000
    C61     C    0.76175   0.63743   0.87272   1.000
    C62     C    0.16602   0.71539   0.94087   1.000
    C63     C    0.66602   0.71539   0.94087   1.000
    C64     C    0.00717   0.64344   0.77247   1.000
    C65     C    0.50717   0.64344   0.77247   1.000
    C66     C    0.09771   0.56803   0.68996   1.000
    C67     C    0.59771   0.56803   0.68996   1.000
    C68     C    0.01268   0.92126   0.52203   1.000
    C69     C    0.51268   0.92126   0.52203   1.000
    C70     C    0.07856   0.00000   0.62300   1.000
    C71     C    0.57857   0.00000   0.62300   1.000
    C72     C    0.17148   0.80405   0.73535   1.000
    C73     C    0.67148   0.80405   0.73535   1.000
    C74     C    0.10631   0.73035   0.62350   1.000
    C75     C    0.60632   0.73035   0.62350   1.000
    C76     C    0.16583   0.93567   0.81557   1.000
    C77     C    0.66583   0.93567   0.81557   1.000
    C78     C    0.26963   0.95967   0.66412   1.000
    C79     C    0.76964   0.95967   0.66412   1.000
    C80     C    0.23825   0.86261   0.87272   1.000
    C81     C    0.73825   0.86261   0.87272   1.000
    C82     C    0.33398   0.78465   0.94087   1.000
    C83     C    0.83398   0.78465   0.94087   1.000
    C84     C    0.49283   0.85660   0.77247   1.000
    C85     C    0.99283   0.85660   0.77247   1.000
    C86     C    0.40229   0.93201   0.68996   1.000
    C87     C    0.90230   0.93201   0.68996   1.000
    C88     C    0.01268   0.57877   0.02204   1.000
    C89     C    0.51268   0.57878   0.02204   1.000
    C90     C    0.07857   0.49530   0.12370   1.000
    C91     C    0.57857   0.49531   0.12370   1.000
    C92     C    0.17148   0.69599   0.23536   1.000
    C93     C    0.67148   0.69599   0.23536   1.000
    C94     C    0.10631   0.76969   0.12359   1.000
    C95     C    0.60632   0.76969   0.12359   1.000
    C96     C    0.16583   0.56436   0.31558   1.000
    C97     C    0.66583   0.56437   0.31557   1.000
    C98     C    0.26964   0.54036   0.16412   1.000
    C99     C    0.76964   0.54037   0.16413   1.000
    C100    C    0.23825   0.63743   0.37273   1.000
    C101    C    0.73825   0.63743   0.37270   1.000
    C102    C    0.33398   0.71539   0.44088   1.000
    C103    C    0.83398   0.71539   0.44088   1.000
    C104    C    0.49283   0.64344   0.27248   1.000
    C105    C    0.99283   0.64344   0.27248   1.000
    C106    C    0.40230   0.56803   0.18997   1.000
    C107    C    0.90230   0.56803   0.18997   1.000
    C108    C    0.48732   0.92126   0.02204   1.000
    C109    C    0.98733   0.92127   0.02204   1.000
    C110    C    0.42144   0.00000   0.12370   1.000
    C111    C    0.92144   0.00000   0.12370   1.000
    C112    C    0.32852   0.80405   0.23536   1.000
    C113    C    0.82852   0.80405   0.23536   1.000
    C114    C    0.39369   0.73035   0.12359   1.000
    C115    C    0.89369   0.73035   0.12359   1.000
    C116    C    0.33417   0.93567   0.31557   1.000
    C117    C    0.83417   0.93567   0.31550   1.000
    C118    C    0.23037   0.95967   0.16412   1.000
    C119    C    0.73037   0.95967   0.16412   1.000
    C120    C    0.26175   0.86261   0.37270   1.000
    C121    C    0.76175   0.86261   0.37273   1.000
    C122    C    0.16602   0.78465   0.44088   1.000
    C123    C    0.66602   0.78465   0.44088   1.000
    C124    C    0.00717   0.85660   0.27248   1.000
    C125    C    0.50717   0.85660   0.27248   1.000
    C126    C    0.09771   0.93201   0.18997   1.000
    C127    C    0.59771   0.93201   0.18997   1.000
    C128    C    0.01268   0.42125   0.47795   1.000
    C129    C    0.51268   0.42125   0.47790   1.000
    C130    C    0.07856   0.50472   0.37628   1.000
    C131    C    0.57857   0.50472   0.37628   1.000
    C132    C    0.17148   0.30404   0.26460   1.000
    C133    C    0.67148   0.30404   0.26463   1.000
    C134    C    0.10631   0.23034   0.37639   1.000
    C135    C    0.60631   0.23034   0.37639   1.000
    C136    C    0.16583   0.43565   0.18442   1.000
    C137    C    0.66583   0.43566   0.18441   1.000
    C138    C    0.26964   0.45966   0.33586   1.000
    C139    C    0.76964   0.45966   0.33586   1.000
    C140    C    0.23825   0.36259   0.12726   1.000
    C141    C    0.73825   0.36260   0.12726   1.000
    C142    C    0.33398   0.28464   0.05910   1.000
    C143    C    0.83398   0.28463   0.05911   1.000
    C144    C    0.49283   0.35659   0.22751   1.000
    C145    C    0.99283   0.35658   0.22751   1.000
    C146    C    0.40229   0.43200   0.31002   1.000
    C147    C    0.90230   0.43200   0.31002   1.000
    C148    C    0.48732   0.07876   0.47795   1.000
    C149    C    0.98732   0.07876   0.47795   1.000
    C150    C    0.42144   0.99529   0.37628   1.000
    C151    C    0.92144   0.99529   0.37628   1.000
    C152    C    0.32852   0.19597   0.26460   1.000
    C153    C    0.82852   0.19597   0.26460   1.000
    C154    C    0.39369   0.26967   0.37639   1.000
    C155    C    0.89369   0.26968   0.37639   1.000
    C156    C    0.33417   0.06436   0.18441   1.000
    C157    C    0.83417   0.06436   0.18442   1.000
    C158    C    0.23037   0.04035   0.33586   1.000
    C159    C    0.73037   0.04035   0.33586   1.000
    C160    C    0.26175   0.13742   0.12726   1.000
    C161    C    0.76175   0.13742   0.12726   1.000
    C162    C    0.16602   0.21538   0.05911   1.000
    C163    C    0.66602   0.21538   0.05910   1.000
    C164    C    0.00717   0.14343   0.22751   1.000
    C165    C    0.50717   0.14343   0.22751   1.000
    C166    C    0.09771   0.06802   0.31002   1.000
    C167    C    0.59771   0.06802   0.31002   1.000
    C168    C    0.45033   0.39820   0.93018   1.000
    C169    C    0.95034   0.39820   0.93018   1.000
    C170    C    0.41433   0.44403   0.87191   1.000
    C171    C    0.91433   0.44403   0.87191   1.000
    C172    C    0.36849   0.41142   0.81098   1.000
    C173    C    0.86850   0.41142   0.81090   1.000
    C174    C    0.36227   0.33278   0.81151   1.000
    C175    C    0.86227   0.33278   0.81151   1.000
    C176    C    0.39905   0.29123   0.87282   1.000
    C177    C    0.89905   0.29123   0.87282   1.000
    C178    C    0.32395   0.45644   0.74927   1.000
    C179    C    0.82396   0.45644   0.74927   1.000
    C180    C    0.24001   0.45836   0.76680   1.000
    C181    C    0.74001   0.45836   0.76680   1.000
    C182    C    0.18769   0.40566   0.72481   1.000
    C183    C    0.68770   0.40566   0.72481   1.000
    C184    C    0.20639   0.36300   0.65320   1.000
    C185    C    0.70639   0.36300   0.65320   1.000
    C186    C    0.15298   0.31993   0.61361   1.000
    C187    C    0.65298   0.31992   0.61361   1.000
    C188    C    0.06446   0.35878   0.70846   1.000
    C189    C    0.56446   0.35878   0.70846   1.000
    C190    C    0.11506   0.40148   0.75340   1.000
    C191    C    0.61506   0.40148   0.75343   1.000
    C192    C    0.04967   0.10181   0.93018   1.000
    C193    C    0.54967   0.10181   0.93018   1.000
    C194    C    0.08566   0.05598   0.87191   1.000
    C195    C    0.58566   0.05598   0.87191   1.000
    C196    C    0.13151   0.08859   0.81098   1.000
    C197    C    0.63151   0.08859   0.81098   1.000
    C198    C    0.13773   0.16723   0.81150   1.000
    C199    C    0.63773   0.16723   0.81150   1.000
    C200    C    0.10096   0.20879   0.87282   1.000
    C201    C    0.60096   0.20879   0.87282   1.000
    C202    C    0.17605   0.04358   0.74927   1.000
    C203    C    0.67605   0.04358   0.74927   1.000
    C204    C    0.25999   0.04165   0.76680   1.000
    C205    C    0.75999   0.04165   0.76680   1.000
    C206    C    0.31231   0.09435   0.72480   1.000
    C207    C    0.81231   0.09435   0.72480   1.000
    C208    C    0.29361   0.13702   0.65320   1.000
    C209    C    0.79361   0.13702   0.65320   1.000
    C210    C    0.34703   0.18009   0.61361   1.000
    C211    C    0.84703   0.18009   0.61361   1.000
    C212    C    0.43554   0.14123   0.70846   1.000
    C213    C    0.93554   0.14123   0.70846   1.000
    C214    C    0.38494   0.09854   0.75344   1.000
    C215    C    0.88494   0.09854   0.75344   1.000
    C216    C    0.45033   0.60182   0.56979   1.000
    C217    C    0.95033   0.60182   0.56979   1.000
    C218    C    0.41434   0.55600   0.62806   1.000
    C219    C    0.91435   0.55600   0.62806   1.000
    C220    C    0.36849   0.58860   0.68899   1.000
    C221    C    0.86849   0.58860   0.68890   1.000
    C222    C    0.36227   0.66724   0.68847   1.000
    C223    C    0.86227   0.66724   0.68847   1.000
    C224    C    0.39904   0.70880   0.62715   1.000
    C225    C    0.89904   0.70880   0.62715   1.000
    C226    C    0.32394   0.54360   0.75070   1.000
    C227    C    0.82394   0.54360   0.75070   1.000
    C228    C    0.24000   0.54166   0.73317   1.000
    C229    C    0.74000   0.54166   0.73317   1.000
    C230    C    0.18769   0.59436   0.77510   1.000
    C231    C    0.68770   0.59436   0.77518   1.000
    C232    C    0.20639   0.63704   0.84677   1.000
    C233    C    0.70639   0.63704   0.84677   1.000
    C234    C    0.15297   0.68010   0.88637   1.000
    C235    C    0.65297   0.68010   0.88637   1.000
    C236    C    0.06446   0.64124   0.79151   1.000
    C237    C    0.56446   0.64124   0.79151   1.000
    C238    C    0.11506   0.59856   0.74653   1.000
    C239    C    0.61506   0.59856   0.74653   1.000
    C240    C    0.04967   0.89822   0.56979   1.000
    C241    C    0.54967   0.89822   0.56979   1.000
    C242    C    0.08566   0.94404   0.62806   1.000
    C243    C    0.58566   0.94404   0.62806   1.000
    C244    C    0.13151   0.91143   0.68899   1.000
    C245    C    0.63151   0.91143   0.68899   1.000
    C246    C    0.13773   0.83279   0.68847   1.000
    C247    C    0.63773   0.83279   0.68847   1.000
    C248    C    0.10096   0.79124   0.62715   1.000
    C249    C    0.60096   0.79124   0.62715   1.000
    C250    C    0.17605   0.95645   0.75070   1.000
    C251    C    0.67605   0.95645   0.75070   1.000
    C252    C    0.25999   0.95838   0.73317   1.000
    C253    C    0.75999   0.95838   0.73317   1.000
    C254    C    0.31230   0.90567   0.77517   1.000
    C255    C    0.81231   0.90567   0.77517   1.000
    C256    C    0.29361   0.86301   0.84677   1.000
    C257    C    0.79362   0.86301   0.84677   1.000
    C258    C    0.34703   0.81994   0.88636   1.000
    C259    C    0.84703   0.81994   0.88636   1.000
    C260    C    0.43554   0.85880   0.79151   1.000
    C261    C    0.93554   0.85880   0.79151   1.000
    C262    C    0.38494   0.90149   0.74654   1.000
    C263    C    0.88494   0.90149   0.74654   1.000
    C264    C    0.04967   0.60182   0.06979   1.000
    C265    C    0.54967   0.60182   0.06980   1.000
    C266    C    0.08565   0.55600   0.12807   1.000
    C267    C    0.58567   0.55600   0.12800   1.000
    C268    C    0.13151   0.58860   0.18899   1.000
    C269    C    0.63151   0.58861   0.18900   1.000
    C270    C    0.13773   0.66724   0.18848   1.000
    C271    C    0.63774   0.66725   0.18847   1.000
    C272    C    0.10096   0.70880   0.12716   1.000
    C273    C    0.60096   0.70880   0.12716   1.000
    C274    C    0.17606   0.54360   0.25071   1.000
    C275    C    0.67605   0.54358   0.25070   1.000
    C276    C    0.26000   0.54166   0.23317   1.000
    C277    C    0.75999   0.54166   0.23318   1.000
    C278    C    0.31231   0.59436   0.27518   1.000
    C279    C    0.81231   0.59437   0.27517   1.000
    C280    C    0.29361   0.63704   0.34678   1.000
    C281    C    0.79362   0.63702   0.34678   1.000
    C282    C    0.34703   0.68010   0.38637   1.000
    C283    C    0.84703   0.68010   0.38637   1.000
    C284    C    0.43554   0.64123   0.29152   1.000
    C285    C    0.93554   0.64125   0.29151   1.000
    C286    C    0.38494   0.59856   0.24654   1.000
    C287    C    0.88495   0.59855   0.24650   1.000
    C288    C    0.45033   0.89822   0.06980   1.000
    C289    C    0.95033   0.89822   0.06979   1.000
    C290    C    0.41434   0.94404   0.12807   1.000
    C291    C    0.91435   0.94404   0.12807   1.000
    C292    C    0.36849   0.91143   0.18900   1.000
    C293    C    0.86849   0.91144   0.18899   1.000
    C294    C    0.36227   0.83279   0.18840   1.000
    C295    C    0.86228   0.83279   0.18848   1.000
    C296    C    0.39904   0.79124   0.12716   1.000
    C297    C    0.89904   0.79124   0.12716   1.000
    C298    C    0.32395   0.95644   0.25070   1.000
    C299    C    0.82394   0.95644   0.25071   1.000
    C300    C    0.24001   0.95838   0.23317   1.000
    C301    C    0.74001   0.95838   0.23317   1.000
    C302    C    0.18769   0.90568   0.27518   1.000
    C303    C    0.68770   0.90568   0.27518   1.000
    C304    C    0.20639   0.86301   0.34678   1.000
    C305    C    0.70639   0.86300   0.34678   1.000
    C306    C    0.15297   0.81994   0.38637   1.000
    C307    C    0.65297   0.81994   0.38637   1.000
    C308    C    0.06446   0.85880   0.29152   1.000
    C309    C    0.56446   0.85880   0.29152   1.000
    C310    C    0.11506   0.90148   0.24654   1.000
    C311    C    0.61506   0.90148   0.24654   1.000
    C312    C    0.04966   0.39821   0.43018   1.000
    C313    C    0.54967   0.39820   0.43019   1.000
    C314    C    0.08567   0.44403   0.37192   1.000
    C315    C    0.58566   0.44403   0.37190   1.000
    C316    C    0.13151   0.41142   0.31098   1.000
    C317    C    0.63151   0.41142   0.31099   1.000
    C318    C    0.13774   0.33278   0.31152   1.000
    C319    C    0.63773   0.33278   0.31150   1.000
    C320    C    0.10095   0.29123   0.37283   1.000
    C321    C    0.60096   0.29123   0.37283   1.000
    C322    C    0.17605   0.45645   0.24928   1.000
    C323    C    0.67606   0.45643   0.24928   1.000
    C324    C    0.25999   0.45836   0.26681   1.000
    C325    C    0.76000   0.45836   0.26681   1.000
    C326    C    0.31231   0.40566   0.22481   1.000
    C327    C    0.81231   0.40567   0.22480   1.000
    C328    C    0.29361   0.36300   0.15320   1.000
    C329    C    0.79361   0.36299   0.15321   1.000
    C330    C    0.34702   0.31992   0.11362   1.000
    C331    C    0.84703   0.31993   0.11361   1.000
    C332    C    0.43554   0.35878   0.20847   1.000
    C333    C    0.93554   0.35879   0.20847   1.000
    C334    C    0.38495   0.40148   0.25344   1.000
    C335    C    0.88494   0.40147   0.25345   1.000
    C336    C    0.45033   0.10181   0.43019   1.000
    C337    C    0.95034   0.10181   0.43018   1.000
    C338    C    0.41434   0.05598   0.37192   1.000
    C339    C    0.91434   0.05598   0.37192   1.000
    C340    C    0.36849   0.08859   0.31099   1.000
    C341    C    0.86850   0.08860   0.31098   1.000
    C342    C    0.36227   0.16723   0.31151   1.000
    C343    C    0.86227   0.16724   0.31150   1.000
    C344    C    0.39904   0.20879   0.37283   1.000
    C345    C    0.89905   0.20879   0.37283   1.000
    C346    C    0.32395   0.04358   0.24928   1.000
    C347    C    0.82396   0.04357   0.24928   1.000
    C348    C    0.24001   0.04165   0.26681   1.000
    C349    C    0.74001   0.04165   0.26681   1.000
    C350    C    0.18770   0.09435   0.22481   1.000
    C351    C    0.68770   0.09435   0.22481   1.000
    C352    C    0.20639   0.13701   0.15320   1.000
    C353    C    0.70639   0.13701   0.15320   1.000
    C354    C    0.15297   0.18009   0.11360   1.000
    C355    C    0.65298   0.18009   0.11362   1.000
    C356    C    0.06446   0.14123   0.20847   1.000
    C357    C    0.56446   0.14123   0.20847   1.000
    C358    C    0.11506   0.09854   0.25344   1.000
    C359    C    0.61506   0.09854   0.25344   1.000
    C360    C    0.44261   0.32307   0.93181   1.000
    C361    C    0.94261   0.32307   0.93181   1.000
    C362    C    0.08274   0.31843   0.63928   1.000
    C363    C    0.58274   0.31843   0.63920   1.000
    C364    C    0.05739   0.17694   0.93181   1.000
    C365    C    0.55739   0.17694   0.93181   1.000
    C366    C    0.41726   0.18159   0.63928   1.000
    C367    C    0.91726   0.18159   0.63928   1.000
    C368    C    0.44261   0.67696   0.56810   1.000
    C369    C    0.94261   0.67696   0.56817   1.000
    C370    C    0.08274   0.68160   0.86069   1.000
    C371    C    0.58274   0.68160   0.86069   1.000
    C372    C    0.05739   0.82308   0.56816   1.000
    C373    C    0.55739   0.82308   0.56816   1.000
    C374    C    0.41726   0.81844   0.86069   1.000
    C375    C    0.91726   0.81844   0.86069   1.000
    C376    C    0.05739   0.67696   0.06817   1.000
    C377    C    0.55739   0.67696   0.06817   1.000
    C378    C    0.41726   0.68160   0.36000   1.000
    C379    C    0.91726   0.68160   0.36070   1.000
    C380    C    0.44261   0.82308   0.06817   1.000
    C381    C    0.94261   0.82308   0.06817   1.000
    C382    C    0.08274   0.81844   0.36070   1.000
    C383    C    0.58274   0.81844   0.36070   1.000
    C384    C    0.05739   0.32307   0.43182   1.000
    C385    C    0.55739   0.32307   0.43181   1.000
    C386    C    0.41726   0.31843   0.13928   1.000
    C387    C    0.91726   0.31842   0.13929   1.000
    C388    C    0.44261   0.17694   0.43182   1.000
    C389    C    0.94261   0.17694   0.43182   1.000
    C390    C    0.08274   0.18159   0.13928   1.000
    C391    C    0.58274   0.18159   0.13928   1.000
    C392    C    0.10019   0.35622   0.05351   1.000
    C393    C    0.60020   0.35622   0.05351   1.000
    C394    C    0.39981   0.14379   0.05351   1.000
    C395    C    0.89981   0.14379   0.05351   1.000
    C396    C    0.10019   0.64381   0.44648   1.000
    C397    C    0.60020   0.64381   0.44648   1.000
    C398    C    0.39981   0.85623   0.44648   1.000
    C399    C    0.89981   0.85623   0.44640   1.000
    C400    C    0.39981   0.64381   0.94647   1.000
    C401    C    0.89981   0.64381   0.94647   1.000
    C402    C    0.10019   0.85623   0.94647   1.000
    C403    C    0.60019   0.85623   0.94647   1.000
    C404    C    0.39981   0.35622   0.55350   1.000
    C405    C    0.89981   0.35622   0.55350   1.000
    C406    C    0.10019   0.14379   0.55350   1.000
    C407    C    0.60019   0.14379   0.55350   1.000
    O408    O    0.03117   0.59030   0.04591   1.000
    O409    O    0.53117   0.59030   0.04592   1.000
    O410    O    0.46883   0.90974   0.04592   1.000
    O411    O    0.96883   0.90974   0.04591   1.000
    O412    O    0.44991   0.19690   0.04998   1.000
    O413    O    0.55010   0.30311   0.04998   1.000
    O414    O    0.54137   0.21580   0.09287   1.000
    O415    O    0.45863   0.28422   0.09287   1.000
    O416    O    0.47131   0.28654   0.98913   1.000
    O417    O    0.52870   0.21348   0.98913   1.000
    O418    O    0.94990   0.19690   0.04998   1.000
    O419    O    0.05010   0.30311   0.04998   1.000
    O420    O    0.04137   0.21580   0.09287   1.000
    O421    O    0.95863   0.28421   0.09287   1.000
    O422    O    0.97130   0.28654   0.98913   1.000
    O423    O    0.02870   0.21348   0.98913   1.000
    O424    O    0.34050   0.30228   0.08636   1.000
    O425    O    0.65950   0.19773   0.08636   1.000
    O426    O    0.15950   0.19773   0.08635   1.000
    O427    O    0.84051   0.30228   0.08636   1.000
    O428    O    0.05353   0.63939   0.06898   1.000
    O429    O    0.07918   0.69288   0.09766   1.000
    O430    O    0.02869   0.71349   0.01084   1.000
    O431    O    0.55353   0.63939   0.06898   1.000
    O432    O    0.57917   0.69288   0.09766   1.000
    O433    O    0.52870   0.71349   0.01084   1.000
    O434    O    0.44647   0.86065   0.06898   1.000
    O435    O    0.42083   0.80716   0.09766   1.000
    O436    O    0.47131   0.78655   0.01084   1.000
    O437    O    0.94647   0.86065   0.06898   1.000
    O438    O    0.92083   0.80716   0.09766   1.000
    O439    O    0.97131   0.78655   0.01084   1.000
    O440    O    0.93234   0.92113   0.09893   1.000
    O441    O    0.06766   0.57891   0.09893   1.000
    O442    O    0.56767   0.57891   0.09890   1.000
    O443    O    0.43234   0.92113   0.09893   1.000
    O444    O    0.11786   0.18084   0.12644   1.000
    O445    O    0.17968   0.15855   0.13340   1.000
    O446    O    0.88215   0.31918   0.12645   1.000
    O447    O    0.82032   0.34146   0.13341   1.000
    O448    O    0.38214   0.31917   0.12645   1.000
    O449    O    0.32032   0.34146   0.13341   1.000
    O450    O    0.61786   0.18084   0.12645   1.000
    O451    O    0.67968   0.15855   0.13341   1.000
    O452    O    0.89637   0.76080   0.12537   1.000
    O453    O    0.39637   0.76079   0.12537   1.000
    O454    O    0.60364   0.73924   0.12537   1.000
    O455    O    0.10364   0.73924   0.12537   1.000
    O456    O    0.08211   0.52565   0.12588   1.000
    O457    O    0.58212   0.52565   0.12585   1.000
    O458    O    0.91789   0.97202   0.12588   1.000
    O459    O    0.41789   0.97202   0.12588   1.000
    O460    O    0.38066   0.81202   0.15778   1.000
    O461    O    0.11935   0.68802   0.15782   1.000
    O462    O    0.61935   0.68802   0.15781   1.000
    O463    O    0.88066   0.81202   0.15782   1.000
    O464    O    0.26593   0.36280   0.14023   1.000
    O465    O    0.76593   0.36279   0.14023   1.000
    O466    O    0.23407   0.13722   0.14023   1.000
    O467    O    0.73407   0.13722   0.14023   1.000
    O468    O    0.60859   0.57230   0.15850   1.000
    O469    O    0.89142   0.92774   0.15853   1.000
    O470    O    0.39142   0.92774   0.15853   1.000
    O471    O    0.10858   0.57230   0.15853   1.000
    O472    O    0.07360   0.16141   0.17387   1.000
    O473    O    0.57360   0.16141   0.17387   1.000
    O474    O    0.42640   0.33860   0.17387   1.000
    O475    O    0.92641   0.33860   0.17388   1.000
    O476    O    0.30296   0.38433   0.18900   1.000
    O477    O    0.19704   0.11568   0.18900   1.000
    O478    O    0.69704   0.11568   0.18900   1.000
    O479    O    0.80296   0.38433   0.18900   1.000
    O480    O    0.26482   0.54101   0.19864   1.000
    O481    O    0.73519   0.95903   0.19864   1.000
    O482    O    0.23519   0.95903   0.19864   1.000
    O483    O    0.76482   0.54102   0.19865   1.000
    O484    O    0.32906   0.05397   0.21684   1.000
    O485    O    0.67095   0.44604   0.21684   1.000
    O486    O    0.17094   0.44605   0.21685   1.000
    O487    O    0.82906   0.05396   0.21685   1.000
    O488    O    0.36538   0.87211   0.18870   1.000
    O489    O    0.34540   0.81842   0.21188   1.000
    O490    O    0.63462   0.62793   0.18873   1.000
    O491    O    0.65461   0.68162   0.21191   1.000
    O492    O    0.86538   0.87212   0.18873   1.000
    O493    O    0.84540   0.81842   0.21192   1.000
    O494    O    0.13462   0.62792   0.18873   1.000
    O495    O    0.15460   0.68162   0.21192   1.000
    O496    O    0.84622   0.93394   0.21985   1.000
    O497    O    0.15379   0.56610   0.21985   1.000
    O498    O    0.34622   0.93394   0.21985   1.000
    O499    O    0.65378   0.56610   0.21985   1.000
    O500    O    0.39362   0.58329   0.21825   1.000
    O501    O    0.89362   0.58329   0.21823   1.000
    O502    O    0.10638   0.91675   0.21825   1.000
    O503    O    0.60639   0.91675   0.21825   1.000
    O504    O    0.53582   0.14233   0.21799   1.000
    O505    O    0.58976   0.11989   0.23095   1.000
    O506    O    0.03581   0.14233   0.21799   1.000
    O507    O    0.08976   0.11989   0.23095   1.000
    O508    O    0.96419   0.35769   0.21799   1.000
    O509    O    0.91024   0.38013   0.23096   1.000
    O510    O    0.46419   0.35768   0.21799   1.000
    O511    O    0.41024   0.38013   0.23095   1.000
    O512    O    0.84863   0.40357   0.23912   1.000
    O513    O    0.78615   0.43201   0.24580   1.000
    O514    O    0.15138   0.09645   0.23912   1.000
    O515    O    0.21385   0.06800   0.24581   1.000
    O516    O    0.65138   0.09645   0.23912   1.000
    O517    O    0.71386   0.06800   0.24581   1.000
    O518    O    0.34863   0.40357   0.23912   1.000
    O519    O    0.28615   0.43201   0.24581   1.000
    O520    O    0.28198   0.95741   0.24193   1.000
    O521    O    0.24001   0.00001   0.24999   1.000
    O522    O    0.21385   0.93203   0.25417   1.000
    O523    O    0.78197   0.95741   0.24194   1.000
    O524    O    0.74001   0.00002   0.24999   1.000
    O525    O    0.71385   0.93203   0.25417   1.000
    O526    O    0.21803   0.54263   0.24194   1.000
    O527    O    0.25999   0.50001   0.24999   1.000
    O528    O    0.28615   0.56801   0.25417   1.000
    O529    O    0.71802   0.54262   0.24194   1.000
    O530    O    0.76000   0.50001   0.24999   1.000
    O531    O    0.78615   0.56802   0.25417   1.000
    O532    O    0.84863   0.59646   0.26083   1.000
    O533    O    0.91025   0.61990   0.26900   1.000
    O534    O    0.34862   0.59646   0.26086   1.000
    O535    O    0.41024   0.61990   0.26903   1.000
    O536    O    0.15138   0.90358   0.26086   1.000
    O537    O    0.08976   0.88014   0.26903   1.000
    O538    O    0.65138   0.90358   0.26086   1.000
    O539    O    0.58976   0.88014   0.26903   1.000
    O540    O    0.82395   0.00000   0.24999   1.000
    O541    O    0.78199   0.04261   0.25804   1.000
    O542    O    0.84623   0.06608   0.28013   1.000
    O543    O    0.32395   0.00001   0.24999   1.000
    O544    O    0.28198   0.04261   0.25804   1.000
    O545    O    0.34622   0.06609   0.28013   1.000
    O546    O    0.67606   0.50001   0.24999   1.000
    O547    O    0.71803   0.45740   0.25804   1.000
    O548    O    0.65379   0.43393   0.28013   1.000
    O549    O    0.17605   0.50002   0.24999   1.000
    O550    O    0.21802   0.45740   0.25804   1.000
    O551    O    0.15378   0.43393   0.28013   1.000
    O552    O    0.67094   0.55398   0.28313   1.000
    O553    O    0.32906   0.94606   0.28313   1.000
    O554    O    0.17095   0.55398   0.28314   1.000
    O555    O    0.82906   0.94605   0.28310   1.000
    O556    O    0.39362   0.41674   0.28173   1.000
    O557    O    0.10638   0.08328   0.28173   1.000
    O558    O    0.60638   0.08328   0.28173   1.000
    O559    O    0.89362   0.41673   0.28173   1.000
    O560    O    0.15461   0.31841   0.28806   1.000
    O561    O    0.34540   0.18160   0.28805   1.000
    O562    O    0.84540   0.18160   0.28805   1.000
    O563    O    0.65461   0.31841   0.28806   1.000
    O564    O    0.73519   0.04100   0.30133   1.000
    O565    O    0.76482   0.45901   0.30133   1.000
    O566    O    0.23519   0.04100   0.30133   1.000
    O567    O    0.26481   0.45901   0.30133   1.000
    O568    O    0.53582   0.85770   0.28200   1.000
    O569    O    0.96419   0.64234   0.28199   1.000
    O570    O    0.46419   0.64234   0.28200   1.000
    O571    O    0.03581   0.85770   0.28200   1.000
    O572    O    0.80296   0.61570   0.31098   1.000
    O573    O    0.19704   0.88434   0.31098   1.000
    O574    O    0.69704   0.88434   0.31098   1.000
    O575    O    0.30296   0.61570   0.31098   1.000
    O576    O    0.92640   0.66142   0.32610   1.000
    O577    O    0.42640   0.66142   0.32576   1.000
    O578    O    0.57360   0.83862   0.32611   1.000
    O579    O    0.07360   0.83862   0.32611   1.000
    O580    O    0.13462   0.37210   0.31125   1.000
    O581    O    0.10859   0.42772   0.34145   1.000
    O582    O    0.86538   0.12792   0.31124   1.000
    O583    O    0.89142   0.07229   0.34145   1.000
    O584    O    0.63462   0.37210   0.31124   1.000
    O585    O    0.60859   0.42773   0.34144   1.000
    O586    O    0.36538   0.12791   0.31125   1.000
    O587    O    0.39142   0.07229   0.34145   1.000
    O588    O    0.61935   0.31200   0.34216   1.000
    O589    O    0.88066   0.18801   0.34216   1.000
    O590    O    0.38066   0.18801   0.34217   1.000
    O591    O    0.11934   0.31200   0.34217   1.000
    O592    O    0.23407   0.86281   0.35974   1.000
    O593    O    0.17968   0.84147   0.36657   1.000
    O594    O    0.73407   0.86281   0.35975   1.000
    O595    O    0.67968   0.84147   0.36657   1.000
    O596    O    0.76594   0.63723   0.35974   1.000
    O597    O    0.82032   0.65856   0.36657   1.000
    O598    O    0.26593   0.63723   0.35975   1.000
    O599    O    0.32032   0.65857   0.36657   1.000
    O600    O    0.38215   0.68085   0.37318   1.000
    O601    O    0.45863   0.71581   0.40676   1.000
    O602    O    0.11786   0.81919   0.37353   1.000
    O603    O    0.04137   0.78423   0.40711   1.000
    O604    O    0.61786   0.81919   0.37353   1.000
    O605    O    0.54137   0.78423   0.40711   1.000
    O606    O    0.88215   0.68085   0.37353   1.000
    O607    O    0.95863   0.71581   0.40711   1.000
    O608    O    0.58211   0.47437   0.37409   1.000
    O609    O    0.56766   0.42112   0.40104   1.000
    O610    O    0.08212   0.47437   0.37410   1.000
    O611    O    0.06767   0.42112   0.40105   1.000
    O612    O    0.41789   0.02564   0.37410   1.000
    O613    O    0.43234   0.07890   0.40105   1.000
    O614    O    0.91789   0.02564   0.37410   1.000
    O615    O    0.93234   0.07890   0.40105   1.000
    O616    O    0.39637   0.23923   0.37461   1.000
    O617    O    0.42083   0.19286   0.40232   1.000
    O618    O    0.89637   0.23923   0.37461   1.000
    O619    O    0.92083   0.19287   0.40232   1.000
    O620    O    0.60364   0.26078   0.37461   1.000
    O621    O    0.57918   0.30715   0.40232   1.000
    O622    O    0.10363   0.26078   0.37461   1.000
    O623    O    0.07917   0.30715   0.40232   1.000
    O624    O    0.15950   0.80229   0.41362   1.000
    O625    O    0.65950   0.80229   0.41362   1.000
    O626    O    0.34050   0.69774   0.41362   1.000
    O627    O    0.84051   0.69775   0.41362   1.000
    O628    O    0.05353   0.36064   0.43100   1.000
    O629    O    0.03117   0.40973   0.45406   1.000
    O630    O    0.94647   0.13938   0.43100   1.000
    O631    O    0.96883   0.09029   0.45406   1.000
    O632    O    0.55353   0.36063   0.43100   1.000
    O633    O    0.53118   0.40973   0.45404   1.000
    O634    O    0.44647   0.13938   0.43100   1.000
    O635    O    0.46883   0.09029   0.45407   1.000
    O636    O    0.52870   0.28654   0.48913   1.000
    O637    O    0.47131   0.21347   0.48913   1.000
    O638    O    0.97130   0.21347   0.48913   1.000
    O639    O    0.02870   0.28654   0.48913   1.000
    O640    O    0.94991   0.80313   0.44996   1.000
    O641    O    0.05010   0.69691   0.45000   1.000
    O642    O    0.55010   0.69691   0.45000   1.000
    O643    O    0.44990   0.80313   0.45000   1.000
    O644    O    0.47131   0.71349   0.51082   1.000
    O645    O    0.52870   0.78655   0.51084   1.000
    O646    O    0.02870   0.78655   0.51084   1.000
    O647    O    0.97131   0.71349   0.51085   1.000
    O648    O    0.53117   0.90974   0.54591   1.000
    O649    O    0.03117   0.90974   0.54591   1.000
    O650    O    0.96883   0.59030   0.54591   1.000
    O651    O    0.46883   0.59030   0.54591   1.000
    O652    O    0.44990   0.30311   0.54997   1.000
    O653    O    0.55010   0.19690   0.54997   1.000
    O654    O    0.54137   0.28422   0.59282   1.000
    O655    O    0.45863   0.21580   0.59286   1.000
    O656    O    0.94990   0.30311   0.54997   1.000
    O657    O    0.05010   0.19690   0.54997   1.000
    O658    O    0.04137   0.28422   0.59286   1.000
    O659    O    0.95863   0.21580   0.59286   1.000
    O660    O    0.84051   0.19773   0.58635   1.000
    O661    O    0.15950   0.30228   0.58635   1.000
    O662    O    0.65950   0.30228   0.58635   1.000
    O663    O    0.34050   0.19773   0.58635   1.000
    O664    O    0.44647   0.63939   0.56894   1.000
    O665    O    0.42082   0.69288   0.59762   1.000
    O666    O    0.05353   0.86065   0.56897   1.000
    O667    O    0.07917   0.80716   0.59765   1.000
    O668    O    0.55353   0.86065   0.56897   1.000
    O669    O    0.57918   0.80716   0.59765   1.000
    O670    O    0.94647   0.63939   0.56898   1.000
    O671    O    0.92083   0.69288   0.59766   1.000
    O672    O    0.93234   0.57891   0.59892   1.000
    O673    O    0.56767   0.92113   0.59892   1.000
    O674    O    0.06766   0.92113   0.59892   1.000
    O675    O    0.43234   0.57891   0.59892   1.000
    O676    O    0.38214   0.18084   0.62644   1.000
    O677    O    0.32032   0.15855   0.63340   1.000
    O678    O    0.61786   0.31917   0.62640   1.000
    O679    O    0.67968   0.34146   0.63340   1.000
    O680    O    0.11786   0.31918   0.62644   1.000
    O681    O    0.17968   0.34146   0.63340   1.000
    O682    O    0.88215   0.18084   0.62644   1.000
    O683    O    0.82032   0.15855   0.63340   1.000
    O684    O    0.58211   0.97202   0.62553   1.000
    O685    O    0.41789   0.52565   0.62553   1.000
    O686    O    0.08211   0.97202   0.62553   1.000
    O687    O    0.39636   0.73924   0.62532   1.000
    O688    O    0.60364   0.76079   0.62532   1.000
    O689    O    0.10364   0.76080   0.62532   1.000
    O690    O    0.89637   0.73924   0.62537   1.000
    O691    O    0.91789   0.52565   0.62587   1.000
    O692    O    0.61935   0.81202   0.65781   1.000
    O693    O    0.11934   0.81202   0.65781   1.000
    O694    O    0.38065   0.68802   0.65781   1.000
    O695    O    0.88066   0.68802   0.65781   1.000
    O696    O    0.73407   0.36280   0.64022   1.000
    O697    O    0.26593   0.13722   0.64022   1.000
    O698    O    0.76593   0.13722   0.64022   1.000
    O699    O    0.23407   0.36280   0.64022   1.000
    O700    O    0.60859   0.92774   0.65852   1.000
    O701    O    0.10858   0.92774   0.65852   1.000
    O702    O    0.39142   0.57230   0.65852   1.000
    O703    O    0.89142   0.57230   0.65848   1.000
    O704    O    0.57360   0.33860   0.67383   1.000
    O705    O    0.07360   0.33860   0.67387   1.000
    O706    O    0.42640   0.16141   0.67387   1.000
    O707    O    0.92640   0.16141   0.67387   1.000
    O708    O    0.80296   0.11568   0.68900   1.000
    O709    O    0.69704   0.38433   0.68900   1.000
    O710    O    0.30296   0.11568   0.68900   1.000
    O711    O    0.19704   0.38433   0.68900   1.000
    O712    O    0.73518   0.54101   0.69863   1.000
    O713    O    0.26481   0.95903   0.69864   1.000
    O714    O    0.23518   0.54101   0.69864   1.000
    O715    O    0.76482   0.95902   0.69864   1.000
    O716    O    0.67094   0.05397   0.71684   1.000
    O717    O    0.32906   0.44605   0.71684   1.000
    O718    O    0.17094   0.05397   0.71684   1.000
    O719    O    0.82906   0.44605   0.71684   1.000
    O720    O    0.36538   0.62792   0.68873   1.000
    O721    O    0.34540   0.68162   0.71191   1.000
    O722    O    0.86538   0.62792   0.68868   1.000
    O723    O    0.84540   0.68162   0.71191   1.000
    O724    O    0.13462   0.87211   0.68873   1.000
    O725    O    0.15460   0.81842   0.71191   1.000
    O726    O    0.63462   0.87211   0.68873   1.000
    O727    O    0.65461   0.81842   0.71191   1.000
    O728    O    0.84622   0.56610   0.71980   1.000
    O729    O    0.65378   0.93394   0.71984   1.000
    O730    O    0.15378   0.93394   0.71984   1.000
    O731    O    0.34622   0.56610   0.71984   1.000
    O732    O    0.60639   0.58329   0.71824   1.000
    O733    O    0.10638   0.58329   0.71824   1.000
    O734    O    0.89362   0.91675   0.71825   1.000
    O735    O    0.39362   0.91675   0.71825   1.000
    O736    O    0.03581   0.35768   0.71798   1.000
    O737    O    0.08976   0.38013   0.73093   1.000
    O738    O    0.53582   0.35768   0.71798   1.000
    O739    O    0.58976   0.38013   0.73094   1.000
    O740    O    0.46419   0.14233   0.71798   1.000
    O741    O    0.41024   0.11988   0.73095   1.000
    O742    O    0.96419   0.14233   0.71798   1.000
    O743    O    0.91024   0.11988   0.73095   1.000
    O744    O    0.84863   0.09645   0.73912   1.000
    O745    O    0.78615   0.06800   0.74580   1.000
    O746    O    0.34862   0.09645   0.73912   1.000
    O747    O    0.28615   0.06800   0.74580   1.000
    O748    O    0.15137   0.40357   0.73910   1.000
    O749    O    0.21385   0.43201   0.74580   1.000
    O750    O    0.65138   0.40357   0.73912   1.000
    O751    O    0.71386   0.43201   0.74580   1.000
    O752    O    0.28197   0.54263   0.74193   1.000
    O753    O    0.24001   0.50001   0.74998   1.000
    O754    O    0.21385   0.56801   0.75413   1.000
    O755    O    0.71802   0.95741   0.74193   1.000
    O756    O    0.75999   0.00001   0.74998   1.000
    O757    O    0.78615   0.93202   0.75417   1.000
    O758    O    0.21802   0.95741   0.74193   1.000
    O759    O    0.25999   0.00001   0.74998   1.000
    O760    O    0.28615   0.93202   0.75417   1.000
    O761    O    0.78197   0.54263   0.74193   1.000
    O762    O    0.74001   0.50001   0.74998   1.000
    O763    O    0.71385   0.56801   0.75417   1.000
    O764    O    0.15138   0.59646   0.76081   1.000
    O765    O    0.08976   0.61990   0.76902   1.000
    O766    O    0.65138   0.59646   0.76085   1.000
    O767    O    0.58976   0.61990   0.76902   1.000
    O768    O    0.84863   0.90358   0.76085   1.000
    O769    O    0.91024   0.88014   0.76902   1.000
    O770    O    0.34862   0.90358   0.76085   1.000
    O771    O    0.41024   0.88014   0.76902   1.000
    O772    O    0.17605   0.00001   0.74998   1.000
    O773    O    0.21802   0.04262   0.75803   1.000
    O774    O    0.15378   0.06609   0.78012   1.000
    O775    O    0.82395   0.50002   0.74998   1.000
    O776    O    0.78199   0.45740   0.75803   1.000
    O777    O    0.84623   0.43393   0.78008   1.000
    O778    O    0.32395   0.50002   0.74998   1.000
    O779    O    0.28198   0.45740   0.75803   1.000
    O780    O    0.34622   0.43393   0.78012   1.000
    O781    O    0.67605   0.00001   0.74998   1.000
    O782    O    0.71802   0.04262   0.75803   1.000
    O783    O    0.65378   0.06609   0.78012   1.000
    O784    O    0.32906   0.55398   0.78313   1.000
    O785    O    0.67094   0.94606   0.78313   1.000
    O786    O    0.82906   0.55398   0.78313   1.000
    O787    O    0.17094   0.94606   0.78313   1.000
    O788    O    0.10638   0.41674   0.78170   1.000
    O789    O    0.60638   0.41674   0.78172   1.000
    O790    O    0.89362   0.08328   0.78172   1.000
    O791    O    0.39362   0.08328   0.78172   1.000
    O792    O    0.34540   0.31841   0.78806   1.000
    O793    O    0.65461   0.18160   0.78806   1.000
    O794    O    0.15460   0.18160   0.78806   1.000
    O795    O    0.84540   0.31841   0.78806   1.000
    O796    O    0.26481   0.04100   0.80130   1.000
    O797    O    0.76482   0.04100   0.80130   1.000
    O798    O    0.73519   0.45901   0.80132   1.000
    O799    O    0.23519   0.45901   0.80132   1.000
    O800    O    0.46419   0.85770   0.78199   1.000
    O801    O    0.53582   0.64234   0.78199   1.000
    O802    O    0.03581   0.64234   0.78199   1.000
    O803    O    0.96419   0.85770   0.78199   1.000
    O804    O    0.19704   0.61570   0.81093   1.000
    O805    O    0.30296   0.88434   0.81097   1.000
    O806    O    0.80296   0.88434   0.81097   1.000
    O807    O    0.69704   0.61570   0.81097   1.000
    O808    O    0.92640   0.83862   0.82610   1.000
    O809    O    0.42640   0.83862   0.82610   1.000
    O810    O    0.07360   0.66142   0.82610   1.000
    O811    O    0.57360   0.66142   0.82610   1.000
    O812    O    0.86538   0.37210   0.81120   1.000
    O813    O    0.89141   0.42772   0.84140   1.000
    O814    O    0.36538   0.37210   0.81124   1.000
    O815    O    0.39141   0.42772   0.84144   1.000
    O816    O    0.13462   0.12791   0.81124   1.000
    O817    O    0.10858   0.07229   0.84144   1.000
    O818    O    0.63462   0.12791   0.81124   1.000
    O819    O    0.60859   0.07229   0.84144   1.000
    O820    O    0.11934   0.18801   0.84216   1.000
    O821    O    0.61935   0.18801   0.84216   1.000
    O822    O    0.88066   0.31200   0.84216   1.000
    O823    O    0.38066   0.31200   0.84216   1.000
    O824    O    0.26593   0.86281   0.85974   1.000
    O825    O    0.32032   0.84147   0.86656   1.000
    O826    O    0.76593   0.86281   0.85974   1.000
    O827    O    0.82032   0.84147   0.86656   1.000
    O828    O    0.23407   0.63723   0.85974   1.000
    O829    O    0.17968   0.65857   0.86657   1.000
    O830    O    0.73407   0.63723   0.85974   1.000
    O831    O    0.67968   0.65857   0.86657   1.000
    O832    O    0.61786   0.68085   0.87353   1.000
    O833    O    0.54137   0.71581   0.90710   1.000
    O834    O    0.11786   0.68085   0.87353   1.000
    O835    O    0.04137   0.71581   0.90710   1.000
    O836    O    0.38214   0.81919   0.87352   1.000
    O837    O    0.45863   0.78423   0.90710   1.000
    O838    O    0.88215   0.81919   0.87352   1.000
    O839    O    0.95863   0.78423   0.90710   1.000
    O840    O    0.91789   0.47437   0.87409   1.000
    O841    O    0.93234   0.42112   0.90104   1.000
    O842    O    0.41789   0.47437   0.87409   1.000
    O843    O    0.43233   0.42112   0.90104   1.000
    O844    O    0.08211   0.02564   0.87409   1.000
    O845    O    0.06766   0.07890   0.90104   1.000
    O846    O    0.58211   0.02564   0.87409   1.000
    O847    O    0.56767   0.07890   0.90104   1.000
    O848    O    0.39637   0.26078   0.87460   1.000
    O849    O    0.42083   0.30715   0.90231   1.000
    O850    O    0.10363   0.23923   0.87460   1.000
    O851    O    0.07917   0.19287   0.90231   1.000
    O852    O    0.89637   0.26078   0.87460   1.000
    O853    O    0.92083   0.30715   0.90231   1.000
    O854    O    0.60364   0.23923   0.87460   1.000
    O855    O    0.57918   0.19287   0.90231   1.000
    O856    O    0.34050   0.80229   0.91361   1.000
    O857    O    0.84051   0.80229   0.91361   1.000
    O858    O    0.65950   0.69774   0.91362   1.000
    O859    O    0.15950   0.69774   0.91362   1.000
    O860    O    0.94647   0.36064   0.93099   1.000
    O861    O    0.96883   0.40973   0.95406   1.000
    O862    O    0.44647   0.36064   0.93099   1.000
    O863    O    0.46883   0.40973   0.95406   1.000
    O864    O    0.05353   0.13938   0.93099   1.000
    O865    O    0.03117   0.09029   0.95406   1.000
    O866    O    0.55353   0.13938   0.93099   1.000
    O867    O    0.53117   0.09029   0.95406   1.000
    O868    O    0.44990   0.69691   0.94999   1.000
    O869    O    0.94990   0.69691   0.94999   1.000
    O870    O    0.05010   0.80313   0.94999   1.000
    O871    O    0.55010   0.80313   0.94999   1.000
loop_
    _geom_bond_atom_site_label_1
    _geom_bond_atom_site_label_2
    _geom_bond_distance
    _geom_bond_site_symmetry_2
    _ccdc_geom_bond_type
    C88    O408      0.54580      .   S
    C264   O408      0.54580      .   S
    C89    O409      0.54579      .   S
    C265   O409      0.54579      .   S
    C108   O410      0.54582      .   S
    C288   O410      0.54582      .   S
    C109   O411      0.54579      .   S
    C289   O411      0.54579      .   S
    C1     O412      1.31899      .   S
    C394   O412      1.31899      .   S
    C1     O413      1.31899      .   S
    C393   O413      1.31899      .   S
    C1     O414      1.21583      .   S
    C391   O414      1.21583      .   S
    C1     O415      1.21584      .   S
    C386   O415      1.21584      .   S
    C1     O416      1.23020  1_554   S
    C360   O416      1.23020      .   S
    C1     O417      1.23017  1_554   S
    C365   O417      1.23017      .   S
    C0     O418      1.31897  1_455   S
    C395   O418      1.31897      .   S
    C0     O419      1.31899      .   S
    C392   O419      1.31899      .   S
    C0     O420      1.21582      .   S
    C390   O420      1.21582      .   S
    C0     O421      1.21584  1_455   S
    C387   O421      1.21584      .   S
    C0     O422      1.23018  1_454   S
    C361   O422      1.23018      .   S
    C0     O423      1.23017  1_554   S
    C364   O423      1.23017      .   S
    C142   O424      0.54510      .   S
    C330   O424      0.54510      .   S
    C163   O425      0.54510      .   S
    C355   O425      0.54510      .   S
    C162   O426      0.54494      .   S
    C354   O426      0.54494      .   S
    C143   O427      0.54503      .   S
    C331   O427      0.54503      .   S
    C376   O428      0.67352      .   S
    C264   O428      0.67352      .   S
    C376   O429      0.67442      .   S
    C272   O429      0.67442      .   S
    C376   O430      1.23017      .   S
    C4     O430      1.23017  1_656   S
    C377   O431      0.67352      .   S
    C265   O431      0.67352      .   S
    C377   O432      0.67438      .   S
    C273   O432      0.67438      .   S
    C377   O433      1.23019      .   S
    C5     O433      1.23019  1_556   S
    C380   O434      0.67353      .   S
    C288   O434      0.67353      .   S
    C380   O435      0.67440      .   S
    C296   O435      0.67440      .   S
    C380   O436      1.23017      .   S
    C5     O436      1.23017  1_556   S
    C381   O437      0.67352      .   S
    C289   O437      0.67352      .   S
    C381   O438      0.67442      .   S
    C297   O438      0.67442      .   S
    C381   O439      1.23015      .   S
    C4     O439      1.23015  1_556   S
    C289   O440      0.69676      .   S
    C291   O440      0.69676      .   S
    C264   O441      0.69675      .   S
    C266   O441      0.69675      .   S
    C265   O442      0.69641      .   S
    C267   O442      0.69641      .   S
    C288   O443      0.69673      .   S
    C290   O443      0.69673      .   S
    C354   O444      0.67380      .   S
    C390   O444      0.67380      .   S
    C354   O445      0.69518      .   S
    C352   O445      0.69518      .   S
    C331   O446      0.67378      .   S
    C387   O446      0.67378      .   S
    C331   O447      0.69516      .   S
    C329   O447      0.69516      .   S
    C330   O448      0.67377      .   S
    C386   O448      0.67377      .   S
    C330   O449      0.69513      .   S
    C328   O449      0.69513      .   S
    C355   O450      0.67377      .   S
    C391   O450      0.67377      .   S
    C355   O451      0.69513      .   S
    C353   O451      0.69513      .   S
    C115   O452      0.54563      .   S
    C297   O452      0.54563      .   S
    C114   O453      0.54563      .   S
    C296   O453      0.54563      .   S
    C95    O454      0.54563      .   S
    C273   O454      0.54563      .   S
    C94    O455      0.54563      .   S
    C272   O455      0.54563      .   S
    C90    O456      0.54590      .   S
    C266   O456      0.54590      .   S
    C91    O457      0.54587      .   S
    C267   O457      0.54587      .   S
    C111   O458      0.50413  1_545   S
    C291   O458      0.50413      .   S
    C110   O459      0.50414  1_545   S
    C290   O459      0.50414      .   S
    C296   O460      0.69463      .   S
    C294   O460      0.69463      .   S
    C272   O461      0.69502      .   S
    C270   O461      0.69502      .   S
    C273   O462      0.69504      .   S
    C271   O462      0.69504      .   S
    C297   O463      0.69502      .   S
    C295   O463      0.69502      .   S
    C140   O464      0.54613      .   S
    C328   O464      0.54613      .   S
    C141   O465      0.54614      .   S
    C329   O465      0.54614      .   S
    C160   O466      0.54613      .   S
    C352   O466      0.54613      .   S
    C161   O467      0.54613      .   S
    C353   O467      0.54613      .   S
    C267   O468      0.70049      .   S
    C269   O468      0.70049      .   S
    C291   O469      0.70013      .   S
    C293   O469      0.70013      .   S
    C290   O470      0.70015      .   S
    C292   O470      0.70015      .   S
    C266   O471      0.70014      .   S
    C268   O471      0.70014      .   S
    C390   O472      0.67354      .   S
    C356   O472      0.67354      .   S
    C391   O473      0.67351      .   S
    C357   O473      0.67351      .   S
    C386   O474      0.67351      .   S
    C332   O474      0.67351      .   S
    C387   O475      0.67351      .   S
    C333   O475      0.67351      .   S
    C328   O476      0.70084      .   S
    C326   O476      0.70084      .   S
    C352   O477      0.70087      .   S
    C350   O477      0.70087      .   S
    C353   O478      0.70084      .   S
    C351   O478      0.70084      .   S
    C329   O479      0.70080      .   S
    C327   O479      0.70080      .   S
    C98    O480      0.55044      .   S
    C276   O480      0.55044      .   S
    C119   O481      0.55045      .   S
    C301   O481      0.55045      .   S
    C118   O482      0.55045      .   S
    C300   O482      0.55045      .   S
    C99    O483      0.55046      .   S
    C277   O483      0.55046      .   S
    C156   O484      0.55089      .   S
    C346   O484      0.55089      .   S
    C137   O485      0.55087      .   S
    C323   O485      0.55087      .   S
    C136   O486      0.55084      .   S
    C322   O486      0.55084      .   S
    C157   O487      0.55084      .   S
    C347   O487      0.55084      .   S
    C294   O488      0.70325      .   S
    C292   O488      0.70325      .   S
    C294   O489      0.54540      .   S
    C112   O489      0.54540      .   S
    C271   O490      0.70325      .   S
    C269   O490      0.70325      .   S
    C271   O491      0.54498      .   S
    C93    O491      0.54498      .   S
    C295   O492      0.70324      .   S
    C293   O492      0.70324      .   S
    C295   O493      0.54500      .   S
    C113   O493      0.54500      .   S
    C270   O494      0.70325      .   S
    C268   O494      0.70325      .   S
    C270   O495      0.54500      .   S
    C92    O495      0.54500      .   S
    C293   O496      0.75020      .   S
    C299   O496      0.75020      .   S
    C268   O497      0.75019      .   S
    C274   O497      0.75019      .   S
    C292   O498      0.75013      .   S
    C298   O498      0.75013      .   S
    C269   O499      0.75017      .   S
    C275   O499      0.75017      .   S
    C106   O500      0.54527      .   S
    C286   O500      0.54527      .   S
    C107   O501      0.54495      .   S
    C287   O501      0.54495      .   S
    C126   O502      0.54524      .   S
    C310   O502      0.54524      .   S
    C127   O503      0.54527      .   S
    C311   O503      0.54527      .   S
    C357   O504      0.54552      .   S
    C165   O504      0.54552      .   S
    C357   O505      0.69592      .   S
    C359   O505      0.69592      .   S
    C356   O506      0.54551      .   S
    C164   O506      0.54551      .   S
    C356   O507      0.69591      .   S
    C358   O507      0.69591      .   S
    C333   O508      0.54551      .   S
    C145   O508      0.54551      .   S
    C333   O509      0.69593      .   S
    C335   O509      0.69593      .   S
    C332   O510      0.54552      .   S
    C144   O510      0.54552      .   S
    C332   O511      0.69593      .   S
    C334   O511      0.69593      .   S
    C327   O512      0.70277      .   S
    C335   O512      0.70277      .   S
    C327   O513      0.74762      .   S
    C325   O513      0.74762      .   S
    C350   O514      0.70275      .   S
    C358   O514      0.70275      .   S
    C350   O515      0.74762      .   S
    C348   O515      0.74762      .   S
    C351   O516      0.70277      .   S
    C359   O516      0.70277      .   S
    C351   O517      0.74764      .   S
    C349   O517      0.74764      .   S
    C326   O518      0.70276      .   S
    C334   O518      0.70276      .   S
    C326   O519      0.74765      .   S
    C324   O519      0.74765      .   S
    C300   O520      0.78052      .   S
    C298   O520      0.78052      .   S
    C300   O521      0.78800  1_565   S
    C348   O521      0.78800      .   S
    C300   O522      0.74764      .   S
    C302   O522      0.74764      .   S
    C301   O523      0.78052      .   S
    C299   O523      0.78052      .   S
    C301   O524      0.78800  1_565   S
    C349   O524      0.78800      .   S
    C301   O525      0.74762      .   S
    C303   O525      0.74762      .   S
    C276   O526      0.78052      .   S
    C274   O526      0.78052      .   S
    C276   O527      0.78822      .   S
    C324   O527      0.78822      .   S
    C276   O528      0.74762      .   S
    C278   O528      0.74762      .   S
    C277   O529      0.78051      .   S
    C275   O529      0.78051      .   S
    C277   O530      0.78819      .   S
    C325   O530      0.78819      .   S
    C277   O531      0.74760      .   S
    C279   O531      0.74760      .   S
    C287   O532      0.70286      .   S
    C279   O532      0.70286      .   S
    C287   O533      0.69609      .   S
    C285   O533      0.69609      .   S
    C286   O534      0.70274      .   S
    C278   O534      0.70274      .   S
    C286   O535      0.69592      .   S
    C284   O535      0.69592      .   S
    C310   O536      0.70277      .   S
    C302   O536      0.70277      .   S
    C310   O537      0.69594      .   S
    C308   O537      0.69594      .   S
    C311   O538      0.70274      .   S
    C303   O538      0.70274      .   S
    C311   O539      0.69593      .   S
    C309   O539      0.69593      .   S
    C347   O540      0.77670      .   S
    C299   O540      0.77670  1_565   S
    C347   O541      0.78053      .   S
    C349   O541      0.78053      .   S
    C347   O542      0.75017      .   S
    C341   O542      0.75017      .   S
    C346   O543      0.77670      .   S
    C298   O543      0.77670  1_565   S
    C346   O544      0.78051      .   S
    C348   O544      0.78051      .   S
    C346   O545      0.75019      .   S
    C340   O545      0.75019      .   S
    C323   O546      0.77692      .   S
    C275   O546      0.77692      .   S
    C323   O547      0.78052      .   S
    C325   O547      0.78052      .   S
    C323   O548      0.75014      .   S
    C317   O548      0.75014      .   S
    C322   O549      0.77692      .   S
    C274   O549      0.77692      .   S
    C322   O550      0.78052      .   S
    C324   O550      0.78052      .   S
    C322   O551      0.75018      .   S
    C316   O551      0.75018      .   S
    C275   O552      0.55091      .   S
    C97    O552      0.55091      .   S
    C298   O553      0.55088      .   S
    C116   O553      0.55088      .   S
    C274   O554      0.55086      .   S
    C96    O554      0.55086      .   S
    C299   O555      0.55028      .   S
    C117   O555      0.55028      .   S
    C334   O556      0.54527      .   S
    C146   O556      0.54527      .   S
    C358   O557      0.54529      .   S
    C166   O557      0.54529      .   S
    C359   O558      0.54526      .   S
    C167   O558      0.54526      .   S
    C335   O559      0.54526      .   S
    C147   O559      0.54526      .   S
    C132   O560      0.54514      .   S
    C318   O560      0.54514      .   S
    C152   O561      0.54511      .   S
    C342   O561      0.54511      .   S
    C153   O562      0.54504      .   S
    C343   O562      0.54504      .   S
    C133   O563      0.54495      .   S
    C319   O563      0.54495      .   S
    C349   O564      0.55046      .   S
    C159   O564      0.55046      .   S
    C325   O565      0.55045      .   S
    C139   O565      0.55045      .   S
    C348   O566      0.55046      .   S
    C158   O566      0.55046      .   S
    C324   O567      0.55047      .   S
    C138   O567      0.55047      .   S
    C125   O568      0.54550      .   S
    C309   O568      0.54550      .   S
    C105   O569      0.54550      .   S
    C285   O569      0.54550      .   S
    C104   O570      0.54551      .   S
    C284   O570      0.54551      .   S
    C124   O571      0.54551      .   S
    C308   O571      0.54551      .   S
    C279   O572      0.70084      .   S
    C281   O572      0.70084      .   S
    C302   O573      0.70084      .   S
    C304   O573      0.70084      .   S
    C303   O574      0.70087      .   S
    C305   O574      0.70087      .   S
    C278   O575      0.70087      .   S
    C280   O575      0.70087      .   S
    C285   O576      0.67352      .   S
    C379   O576      0.67352      .   S
    C284   O577      0.66908      .   S
    C378   O577      0.66908      .   S
    C309   O578      0.67351      .   S
    C383   O578      0.67351      .   S
    C308   O579      0.67349      .   S
    C382   O579      0.67349      .   S
    C316   O580      0.70325      .   S
    C318   O580      0.70325      .   S
    C316   O581      0.70017      .   S
    C314   O581      0.70017      .   S
    C341   O582      0.70324      .   S
    C343   O582      0.70324      .   S
    C341   O583      0.70017      .   S
    C339   O583      0.70017      .   S
    C317   O584      0.70325      .   S
    C319   O584      0.70325      .   S
    C317   O585      0.70008      .   S
    C315   O585      0.70008      .   S
    C340   O586      0.70325      .   S
    C342   O586      0.70325      .   S
    C340   O587      0.70015      .   S
    C338   O587      0.70015      .   S
    C319   O588      0.69507      .   S
    C321   O588      0.69507      .   S
    C343   O589      0.69515      .   S
    C345   O589      0.69515      .   S
    C342   O590      0.69506      .   S
    C344   O590      0.69506      .   S
    C318   O591      0.69504      .   S
    C320   O591      0.69504      .   S
    C304   O592      0.54606      .   S
    C120   O592      0.54606      .   S
    C304   O593      0.69514      .   S
    C306   O593      0.69514      .   S
    C305   O594      0.54615      .   S
    C121   O594      0.54615      .   S
    C305   O595      0.69512      .   S
    C307   O595      0.69512      .   S
    C281   O596      0.54607      .   S
    C101   O596      0.54607      .   S
    C281   O597      0.69517      .   S
    C283   O597      0.69517      .   S
    C280   O598      0.54615      .   S
    C100   O598      0.54615      .   S
    C280   O599      0.69512      .   S
    C282   O599      0.69512      .   S
    C378   O600      0.67543      .   S
    C282   O600      0.67543      .   S
    C378   O601      1.21917      .   S
    C3     O601      1.21917      .   S
    C382   O602      0.67377      .   S
    C306   O602      0.67377      .   S
    C382   O603      1.21587      .   S
    C2     O603      1.21587      .   S
    C383   O604      0.67376      .   S
    C307   O604      0.67376      .   S
    C383   O605      1.21586      .   S
    C3     O605      1.21586      .   S
    C379   O606      0.67378      .   S
    C283   O606      0.67378      .   S
    C379   O607      1.21586      .   S
    C2     O607      1.21586  1_455   S
    C315   O608      0.54591      .   S
    C131   O608      0.54591      .   S
    C315   O609      0.69680      .   S
    C313   O609      0.69680      .   S
    C314   O610      0.54590      .   S
    C130   O610      0.54590      .   S
    C314   O611      0.69672      .   S
    C312   O611      0.69672      .   S
    C338   O612      0.54591      .   S
    C150   O612      0.54591  1_565   S
    C338   O613      0.69673      .   S
    C336   O613      0.69673      .   S
    C339   O614      0.54591      .   S
    C151   O614      0.54591  1_565   S
    C339   O615      0.69671      .   S
    C337   O615      0.69671      .   S
    C344   O616      0.54563      .   S
    C154   O616      0.54563      .   S
    C344   O617      0.67440      .   S
    C388   O617      0.67440      .   S
    C345   O618      0.54563      .   S
    C155   O618      0.54563      .   S
    C345   O619      0.67438      .   S
    C389   O619      0.67438      .   S
    C321   O620      0.54564      .   S
    C135   O620      0.54564      .   S
    C321   O621      0.67437      .   S
    C385   O621      0.67437      .   S
    C320   O622      0.54563      .   S
    C134   O622      0.54563      .   S
    C320   O623      0.67438      .   S
    C384   O623      0.67438      .   S
    C306   O624      0.54508      .   S
    C122   O624      0.54508      .   S
    C307   O625      0.54510      .   S
    C123   O625      0.54510      .   S
    C282   O626      0.54510      .   S
    C102   O626      0.54510      .   S
    C283   O627      0.54505      .   S
    C103   O627      0.54505      .   S
    C312   O628      0.67352      .   S
    C384   O628      0.67352      .   S
    C312   O629      0.54584      .   S
    C128   O629      0.54584      .   S
    C337   O630      0.67352      .   S
    C389   O630      0.67352      .   S
    C337   O631      0.54584      .   S
    C149   O631      0.54584      .   S
    C313   O632      0.67353      .   S
    C385   O632      0.67353      .   S
    C313   O633      0.54557      .   S
    C129   O633      0.54557      .   S
    C336   O634      0.67352      .   S
    C388   O634      0.67352      .   S
    C336   O635      0.54581      .   S
    C148   O635      0.54581      .   S
    C385   O636      1.23011      .   S
    C7     O636      1.23011      .   S
    C388   O637      1.23006      .   S
    C7     O637      1.23006      .   S
    C389   O638      1.23006      .   S
    C6     O638      1.23006      .   S
    C384   O639      1.23009      .   S
    C6     O639      1.23009  1_655   S
    C399   O640      1.31900      .   S
    C2     O640      1.31900  1_455   S
    C396   O641      1.31899      .   S
    C2     O641      1.31899      .   S
    C397   O642      1.31900      .   S
    C3     O642      1.31900      .   S
    C398   O643      1.31899      .   S
    C3     O643      1.31899      .   S
    C3     O644      1.22971      .   S
    C368   O644      1.22971      .   S
    C3     O645      1.23007      .   S
    C373   O645      1.23007      .   S
    C2     O646      1.23006      .   S
    C372   O646      1.23006      .   S
    C2     O647      1.23009  1_455   S
    C369   O647      1.23009      .   S
    C69    O648      0.54581      .   S
    C241   O648      0.54581      .   S
    C68    O649      0.54581      .   S
    C240   O649      0.54581      .   S
    C49    O650      0.54584      .   S
    C217   O650      0.54584      .   S
    C48    O651      0.54583      .   S
    C216   O651      0.54583      .   S
    C7     O652      1.31900      .   S
    C404   O652      1.31900      .   S
    C7     O653      1.31899      .   S
    C407   O653      1.31899      .   S
    C7     O654      1.21550      .   S
    C363   O654      1.21550      .   S
    C7     O655      1.21587      .   S
    C366   O655      1.21587      .   S
    C6     O656      1.31896      .   S
    C405   O656      1.31896      .   S
    C6     O657      1.31898  1_655   S
    C406   O657      1.31898      .   S
    C6     O658      1.21588  1_655   S
    C362   O658      1.21588      .   S
    C6     O659      1.21584      .   S
    C367   O659      1.21584      .   S
    C43    O660      0.54507      .   S
    C211   O660      0.54507      .   S
    C22    O661      0.54505      .   S
    C186   O661      0.54505      .   S
    C23    O662      0.54504      .   S
    C187   O662      0.54504      .   S
    C42    O663      0.54507      .   S
    C210   O663      0.54507      .   S
    C368   O664      0.67354      .   S
    C216   O664      0.67354      .   S
    C368   O665      0.67474      .   S
    C224   O665      0.67474      .   S
    C372   O666      0.67352      .   S
    C240   O666      0.67352      .   S
    C372   O667      0.67440      .   S
    C248   O667      0.67440      .   S
    C373   O668      0.67352      .   S
    C241   O668      0.67352      .   S
    C373   O669      0.67440      .   S
    C249   O669      0.67440      .   S
    C369   O670      0.67352      .   S
    C217   O670      0.67352      .   S
    C369   O671      0.67436      .   S
    C225   O671      0.67436      .   S
    C217   O672      0.69670      .   S
    C219   O672      0.69670      .   S
    C241   O673      0.69674      .   S
    C243   O673      0.69674      .   S
    C240   O674      0.69674      .   S
    C242   O674      0.69674      .   S
    C216   O675      0.69671      .   S
    C218   O675      0.69671      .   S
    C210   O676      0.67378      .   S
    C366   O676      0.67378      .   S
    C210   O677      0.69514      .   S
    C208   O677      0.69514      .   S
    C187   O678      0.67360      .   S
    C363   O678      0.67360      .   S
    C187   O679      0.69517      .   S
    C185   O679      0.69517      .   S
    C186   O680      0.67379      .   S
    C362   O680      0.67379      .   S
    C186   O681      0.69515      .   S
    C184   O681      0.69515      .   S
    C211   O682      0.67378      .   S
    C367   O682      0.67378      .   S
    C211   O683      0.69514      .   S
    C209   O683      0.69514      .   S
    C71    O684      0.50455  1_545   S
    C243   O684      0.50455      .   S
    C50    O685      0.54628      .   S
    C218   O685      0.54628      .   S
    C70    O686      0.50454  1_545   S
    C242   O686      0.50454      .   S
    C54    O687      0.54566      .   S
    C224   O687      0.54566      .   S
    C75    O688      0.54566      .   S
    C249   O688      0.54566      .   S
    C74    O689      0.54567      .   S
    C248   O689      0.54567      .   S
    C55    O690      0.54563      .   S
    C225   O690      0.54563      .   S
    C51    O691      0.54592      .   S
    C219   O691      0.54592      .   S
    C249   O692      0.69506      .   S
    C247   O692      0.69506      .   S
    C248   O693      0.69506      .   S
    C246   O693      0.69506      .   S
    C224   O694      0.69504      .   S
    C222   O694      0.69504      .   S
    C225   O695      0.69503      .   S
    C223   O695      0.69503      .   S
    C21    O696      0.54616      .   S
    C185   O696      0.54616      .   S
    C40    O697      0.54615      .   S
    C208   O697      0.54615      .   S
    C41    O698      0.54615      .   S
    C209   O698      0.54615      .   S
    C20    O699      0.54616      .   S
    C184   O699      0.54616      .   S
    C243   O700      0.70014      .   S
    C245   O700      0.70014      .   S
    C242   O701      0.70015      .   S
    C244   O701      0.70015      .   S
    C218   O702      0.70017      .   S
    C220   O702      0.70017      .   S
    C219   O703      0.69970      .   S
    C221   O703      0.69970      .   S
    C363   O704      0.67396      .   S
    C189   O704      0.67396      .   S
    C362   O705      0.67346      .   S
    C188   O705      0.67346      .   S
    C366   O706      0.67349      .   S
    C212   O706      0.67349      .   S
    C367   O707      0.67349      .   S
    C213   O707      0.67349      .   S
    C209   O708      0.70083      .   S
    C207   O708      0.70083      .   S
    C185   O709      0.70083      .   S
    C183   O709      0.70083      .   S
    C208   O710      0.70083      .   S
    C206   O710      0.70083      .   S
    C184   O711      0.70085      .   S
    C182   O711      0.70085      .   S
    C59    O712      0.55060      .   S
    C229   O712      0.55060      .   S
    C78    O713      0.55046      .   S
    C252   O713      0.55046      .   S
    C58    O714      0.55045      .   S
    C228   O714      0.55045      .   S
    C79    O715      0.55046      .   S
    C253   O715      0.55046      .   S
    C37    O716      0.55082      .   S
    C203   O716      0.55082      .   S
    C16    O717      0.55083      .   S
    C178   O717      0.55083      .   S
    C36    O718      0.55082      .   S
    C202   O718      0.55082      .   S
    C17    O719      0.55084      .   S
    C179   O719      0.55084      .   S
    C222   O720      0.70325      .   S
    C220   O720      0.70325      .   S
    C222   O721      0.54498      .   S
    C52    O721      0.54498      .   S
    C223   O722      0.70324      .   S
    C221   O722      0.70324      .   S
    C223   O723      0.54500      .   S
    C53    O723      0.54500      .   S
    C246   O724      0.70325      .   S
    C244   O724      0.70325      .   S
    C246   O725      0.54496      .   S
    C72    O725      0.54496      .   S
    C247   O726      0.70325      .   S
    C245   O726      0.70325      .   S
    C247   O727      0.54496      .   S
    C73    O727      0.54496      .   S
    C221   O728      0.75061      .   S
    C227   O728      0.75061      .   S
    C245   O729      0.75019      .   S
    C251   O729      0.75019      .   S
    C244   O730      0.75019      .   S
    C250   O730      0.75019      .   S
    C220   O731      0.75017      .   S
    C226   O731      0.75017      .   S
    C67    O732      0.54527      .   S
    C239   O732      0.54527      .   S
    C66    O733      0.54526      .   S
    C238   O733      0.54526      .   S
    C87    O734      0.54530      .   S
    C263   O734      0.54530      .   S
    C86    O735      0.54530      .   S
    C262   O735      0.54530      .   S
    C188   O736      0.54552      .   S
    C24    O736      0.54552      .   S
    C188   O737      0.69580      .   S
    C190   O737      0.69580      .   S
    C189   O738      0.54552      .   S
    C25    O738      0.54552      .   S
    C189   O739      0.69592      .   S
    C191   O739      0.69592      .   S
    C212   O740      0.54551      .   S
    C44    O740      0.54551      .   S
    C212   O741      0.69594      .   S
    C214   O741      0.69594      .   S
    C213   O742      0.54551      .   S
    C45    O742      0.54551      .   S
    C213   O743      0.69594      .   S
    C215   O743      0.69594      .   S
    C207   O744      0.70277      .   S
    C215   O744      0.70277      .   S
    C207   O745      0.74761      .   S
    C205   O745      0.74761      .   S
    C206   O746      0.70277      .   S
    C214   O746      0.70277      .   S
    C206   O747      0.74761      .   S
    C204   O747      0.74761      .   S
    C182   O748      0.70266      .   S
    C190   O748      0.70266      .   S
    C182   O749      0.74760      .   S
    C180   O749      0.74760      .   S
    C183   O750      0.70275      .   S
    C191   O750      0.70275      .   S
    C183   O751      0.74761      .   S
    C181   O751      0.74761      .   S
    C228   O752      0.78052      .   S
    C226   O752      0.78052      .   S
    C228   O753      0.78819      .   S
    C180   O753      0.78819      .   S
    C228   O754      0.74735      .   S
    C230   O754      0.74735      .   S
    C253   O755      0.78052      .   S
    C251   O755      0.78052      .   S
    C253   O756      0.78798  1_565   S
    C205   O756      0.78798      .   S
    C253   O757      0.74762      .   S
    C255   O757      0.74762      .   S
    C252   O758      0.78051      .   S
    C250   O758      0.78051      .   S
    C252   O759      0.78797  1_565   S
    C204   O759      0.78797      .   S
    C252   O760      0.74762      .   S
    C254   O760      0.74762      .   S
    C229   O761      0.78051      .   S
    C227   O761      0.78051      .   S
    C229   O762      0.78819      .   S
    C181   O762      0.78819      .   S
    C229   O763      0.74762      .   S
    C231   O763      0.74762      .   S
    C238   O764      0.70257      .   S
    C230   O764      0.70257      .   S
    C238   O765      0.69593      .   S
    C236   O765      0.69593      .   S
    C239   O766      0.70277      .   S
    C231   O766      0.70277      .   S
    C239   O767      0.69592      .   S
    C237   O767      0.69592      .   S
    C263   O768      0.70274      .   S
    C255   O768      0.70274      .   S
    C263   O769      0.69591      .   S
    C261   O769      0.69591      .   S
    C262   O770      0.70275      .   S
    C254   O770      0.70275      .   S
    C262   O771      0.69591      .   S
    C260   O771      0.69591      .   S
    C202   O772      0.77670      .   S
    C250   O772      0.77670  1_565   S
    C202   O773      0.78052      .   S
    C204   O773      0.78052      .   S
    C202   O774      0.75018      .   S
    C196   O774      0.75018      .   S
    C179   O775      0.77692      .   S
    C227   O775      0.77692      .   S
    C179   O776      0.78053      .   S
    C181   O776      0.78053      .   S
    C179   O777      0.74981      .   S
    C173   O777      0.74981      .   S
    C178   O778      0.77692      .   S
    C226   O778      0.77692      .   S
    C178   O779      0.78052      .   S
    C180   O779      0.78052      .   S
    C178   O780      0.75020      .   S
    C172   O780      0.75020      .   S
    C203   O781      0.77669      .   S
    C251   O781      0.77669  1_565   S
    C203   O782      0.78051      .   S
    C205   O782      0.78051      .   S
    C203   O783      0.75018      .   S
    C197   O783      0.75018      .   S
    C226   O784      0.55087      .   S
    C56    O784      0.55087      .   S
    C251   O785      0.55089      .   S
    C77    O785      0.55089      .   S
    C227   O786      0.55086      .   S
    C57    O786      0.55086      .   S
    C250   O787      0.55089      .   S
    C76    O787      0.55089      .   S
    C190   O788      0.54547      .   S
    C26    O788      0.54547      .   S
    C191   O789      0.54527      .   S
    C27    O789      0.54527      .   S
    C215   O790      0.54524      .   S
    C47    O790      0.54524      .   S
    C214   O791      0.54524      .   S
    C46    O791      0.54524      .   S
    C12    O792      0.54499      .   S
    C174   O792      0.54499      .   S
    C33    O793      0.54497      .   S
    C199   O793      0.54497      .   S
    C32    O794      0.54497      .   S
    C198   O794      0.54497      .   S
    C13    O795      0.54498      .   S
    C175   O795      0.54498      .   S
    C204   O796      0.55007      .   S
    C38    O796      0.55007      .   S
    C205   O797      0.55007      .   S
    C39    O797      0.55007      .   S
    C181   O798      0.55047      .   S
    C19    O798      0.55047      .   S
    C180   O799      0.55046      .   S
    C18    O799      0.55046      .   S
    C84    O800      0.54551      .   S
    C260   O800      0.54551      .   S
    C65    O801      0.54550      .   S
    C237   O801      0.54550      .   S
    C64    O802      0.54551      .   S
    C236   O802      0.54551      .   S
    C85    O803      0.54552      .   S
    C261   O803      0.54552      .   S
    C230   O804      0.70130      .   S
    C232   O804      0.70130      .   S
    C254   O805      0.70082      .   S
    C256   O805      0.70082      .   S
    C255   O806      0.70082      .   S
    C257   O806      0.70082      .   S
    C231   O807      0.70081      .   S
    C233   O807      0.70081      .   S
    C261   O808      0.67348      .   S
    C375   O808      0.67348      .   S
    C260   O809      0.67348      .   S
    C374   O809      0.67348      .   S
    C236   O810      0.67351      .   S
    C370   O810      0.67351      .   S
    C237   O811      0.67351      .   S
    C371   O811      0.67351      .   S
    C173   O812      0.70326      .   S
    C175   O812      0.70326      .   S
    C173   O813      0.70054      .   S
    C171   O813      0.70054      .   S
    C172   O814      0.70325      .   S
    C174   O814      0.70325      .   S
    C172   O815      0.70013      .   S
    C170   O815      0.70013      .   S
    C196   O816      0.70325      .   S
    C198   O816      0.70325      .   S
    C196   O817      0.70015      .   S
    C194   O817      0.70015      .   S
    C197   O818      0.70325      .   S
    C199   O818      0.70325      .   S
    C197   O819      0.70016      .   S
    C195   O819      0.70016      .   S
    C198   O820      0.69506      .   S
    C200   O820      0.69506      .   S
    C199   O821      0.69506      .   S
    C201   O821      0.69506      .   S
    C175   O822      0.69504      .   S
    C177   O822      0.69504      .   S
    C174   O823      0.69502      .   S
    C176   O823      0.69502      .   S
    C256   O824      0.54615      .   S
    C80    O824      0.54615      .   S
    C256   O825      0.69515      .   S
    C258   O825      0.69515      .   S
    C257   O826      0.54616      .   S
    C81    O826      0.54616      .   S
    C257   O827      0.69514      .   S
    C259   O827      0.69514      .   S
    C232   O828      0.54614      .   S
    C60    O828      0.54614      .   S
    C232   O829      0.69517      .   S
    C234   O829      0.69517      .   S
    C233   O830      0.54614      .   S
    C61    O830      0.54614      .   S
    C233   O831      0.69516      .   S
    C235   O831      0.69516      .   S
    C371   O832      0.67378      .   S
    C235   O832      0.67378      .   S
    C371   O833      1.21586      .   S
    C5     O833      1.21586      .   S
    C370   O834      0.67378      .   S
    C234   O834      0.67378      .   S
    C370   O835      1.21586      .   S
    C4     O835      1.21586  1_655   S
    C374   O836      0.67377      .   S
    C258   O836      0.67377      .   S
    C374   O837      1.21587      .   S
    C5     O837      1.21587      .   S
    C375   O838      0.67377      .   S
    C259   O838      0.67377      .   S
    C375   O839      1.21585      .   S
    C4     O839      1.21585      .   S
    C171   O840      0.54592      .   S
    C11    O840      0.54592      .   S
    C171   O841      0.69677      .   S
    C169   O841      0.69677      .   S
    C170   O842      0.54591      .   S
    C10    O842      0.54591      .   S
    C170   O843      0.69675      .   S
    C168   O843      0.69675      .   S
    C194   O844      0.54591      .   S
    C30    O844      0.54591  1_565   S
    C194   O845      0.69673      .   S
    C192   O845      0.69673      .   S
    C195   O846      0.54591      .   S
    C31    O846      0.54591  1_565   S
    C195   O847      0.69672      .   S
    C193   O847      0.69672      .   S
    C176   O848      0.54563      .   S
    C14    O848      0.54563      .   S
    C176   O849      0.67439      .   S
    C360   O849      0.67439      .   S
    C200   O850      0.54564      .   S
    C34    O850      0.54564      .   S
    C200   O851      0.67440      .   S
    C364   O851      0.67440      .   S
    C177   O852      0.54563      .   S
    C15    O852      0.54563      .   S
    C177   O853      0.67438      .   S
    C361   O853      0.67438      .   S
    C201   O854      0.54563      .   S
    C35    O854      0.54563      .   S
    C201   O855      0.67440      .   S
    C365   O855      0.67440      .   S
    C258   O856      0.54507      .   S
    C82    O856      0.54507      .   S
    C259   O857      0.54507      .   S
    C83    O857      0.54507      .   S
    C235   O858      0.54504      .   S
    C63    O858      0.54504      .   S
    C234   O859      0.54503      .   S
    C62    O859      0.54503      .   S
    C169   O860      0.67352      .   S
    C361   O860      0.67352      .   S
    C169   O861      0.54579      .   S
    C9     O861      0.54579      .   S
    C168   O862      0.67352      .   S
    C360   O862      0.67352      .   S
    C168   O863      0.54579      .   S
    C8     O863      0.54579      .   S
    C192   O864      0.67353      .   S
    C364   O864      0.67353      .   S
    C192   O865      0.54582      .   S
    C28    O865      0.54582      .   S
    C193   O866      0.67353      .   S
    C365   O866      0.67353      .   S
    C193   O867      0.54582      .   S
    C29    O867      0.54582      .   S
    C400   O868      1.31899      .   S
    C5     O868      1.31899      .   S
    C401   O869      1.31896      .   S
    C4     O869      1.31896      .   S
    C402   O870      1.31899      .   S
    C4     O870      1.31899  1_655   S
    C403   O871      1.31899      .   S
    C5     O871      1.31899      .   S
