# CIF file generated by openbabel 2.4.90, see http://openbabel.sf.net
data_I
_chemical_name_common 'VESTA_phase_1'
_cell_length_a 14.01
_cell_length_b 20.56
_cell_length_c 20.561
_cell_angle_alpha 89.85
_cell_angle_beta 93.673
_cell_angle_gamma 86.353
_space_group_name_H-M_alt 'P 1'
_space_group_name_Hall 'P 1'
loop_
    _symmetry_equiv_pos_as_xyz
    x,y,z
loop_
    _atom_site_label
    _atom_site_type_symbol
    _atom_site_fract_x
    _atom_site_fract_y
    _atom_site_fract_z
    _atom_site_occupancy
    Cd0     Cd   0.37502   0.28728   0.28720   1.000
    Cd1     Cd   0.37501   0.28728   0.78727   1.000
    Cd2     Cd   0.37502   0.78729   0.28726   1.000
    Cd3     Cd   0.37501   0.78729   0.78720   1.000
    Cd4     Cd   0.87502   0.28728   0.28726   1.000
    Cd5     Cd   0.87501   0.28728   0.78720   1.000
    Cd6     Cd   0.87502   0.78729   0.28720   1.000
    Cd7     Cd   0.87501   0.78729   0.78727   1.000
    Cd8     Cd   0.12499   0.21273   0.21275   1.000
    Cd9     Cd   0.12499   0.21273   0.71276   1.000
    Cd10    Cd   0.12499   0.71273   0.21275   1.000
    Cd11    Cd   0.12498   0.71274   0.71276   1.000
    Cd12    Cd   0.62499   0.21272   0.21275   1.000
    Cd13    Cd   0.62498   0.21273   0.71276   1.000
    Cd14    Cd   0.62499   0.71274   0.21275   1.000
    Cd15    Cd   0.62499   0.71274   0.71276   1.000
    H16     H    0.45506   0.17069   0.10863   1.000
    H17     H    0.45504   0.17069   0.60864   1.000
    H18     H    0.45505   0.67070   0.10863   1.000
    H19     H    0.45505   0.67070   0.60864   1.000
    H20     H    0.95505   0.17069   0.10863   1.000
    H21     H    0.95505   0.17069   0.60864   1.000
    H22     H    0.95506   0.67070   0.10863   1.000
    H23     H    0.95505   0.67070   0.60864   1.000
    H24     H    0.38308   0.36407   0.15021   1.000
    H25     H    0.38307   0.36407   0.65022   1.000
    H26     H    0.38308   0.86408   0.15021   1.000
    H27     H    0.38307   0.86408   0.65022   1.000
    H28     H    0.88309   0.36407   0.15021   1.000
    H29     H    0.88308   0.36407   0.65022   1.000
    H30     H    0.88309   0.86408   0.15021   1.000
    H31     H    0.88308   0.86408   0.65022   1.000
    H32     H    0.39980   0.18720   0.48959   1.000
    H33     H    0.39978   0.18720   0.98960   1.000
    H34     H    0.39980   0.68720   0.48959   1.000
    H35     H    0.39979   0.68721   0.98960   1.000
    H36     H    0.89979   0.18719   0.48959   1.000
    H37     H    0.89979   0.18720   0.98960   1.000
    H38     H    0.89980   0.68720   0.48959   1.000
    H39     H    0.89979   0.68720   0.98960   1.000
    H40     H    0.32081   0.38727   0.03181   1.000
    H41     H    0.32082   0.38728   0.53182   1.000
    H42     H    0.32083   0.88729   0.03180   1.000
    H43     H    0.32082   0.88728   0.53182   1.000
    H44     H    0.82084   0.38728   0.03180   1.000
    H45     H    0.82081   0.38727   0.53182   1.000
    H46     H    0.82083   0.88728   0.03180   1.000
    H47     H    0.82083   0.88729   0.53180   1.000
    H48     H    0.29498   0.10864   0.17070   1.000
    H49     H    0.29498   0.10864   0.67071   1.000
    H50     H    0.29499   0.60865   0.17070   1.000
    H51     H    0.29497   0.60865   0.67071   1.000
    H52     H    0.79498   0.10864   0.17070   1.000
    H53     H    0.79497   0.10864   0.67071   1.000
    H54     H    0.79499   0.60865   0.17070   1.000
    H55     H    0.79498   0.60865   0.67071   1.000
    H56     H    0.36693   0.15024   0.36410   1.000
    H57     H    0.36693   0.15024   0.86411   1.000
    H58     H    0.36693   0.65025   0.36410   1.000
    H59     H    0.36693   0.65024   0.86411   1.000
    H60     H    0.86694   0.15024   0.36410   1.000
    H61     H    0.86693   0.15024   0.86411   1.000
    H62     H    0.86694   0.65025   0.36410   1.000
    H63     H    0.86694   0.65025   0.86411   1.000
    H64     H    0.35027   0.48962   0.18722   1.000
    H65     H    0.35027   0.48962   0.68722   1.000
    H66     H    0.35027   0.98963   0.18721   1.000
    H67     H    0.35026   0.98963   0.68723   1.000
    H68     H    0.85028   0.48962   0.18721   1.000
    H69     H    0.85027   0.48962   0.68723   1.000
    H70     H    0.85028   0.98963   0.18721   1.000
    H71     H    0.85027   0.98963   0.68720   1.000
    H72     H    0.42918   0.03185   0.38730   1.000
    H73     H    0.42917   0.03185   0.88734   1.000
    H74     H    0.42918   0.53186   0.38733   1.000
    H75     H    0.42921   0.53186   0.88733   1.000
    H76     H    0.92920   0.03186   0.38732   1.000
    H77     H    0.92920   0.03186   0.88733   1.000
    H78     H    0.92920   0.53186   0.38732   1.000
    H79     H    0.92920   0.53186   0.88733   1.000
    H80     H    0.04496   0.32932   0.39138   1.000
    H81     H    0.04496   0.32932   0.89139   1.000
    H82     H    0.04497   0.82933   0.39138   1.000
    H83     H    0.04496   0.82933   0.89139   1.000
    H84     H    0.54497   0.32932   0.39138   1.000
    H85     H    0.54495   0.32932   0.89139   1.000
    H86     H    0.54497   0.82933   0.39138   1.000
    H87     H    0.54497   0.82933   0.89139   1.000
    H88     H    0.11692   0.13594   0.34980   1.000
    H89     H    0.11692   0.13594   0.84981   1.000
    H90     H    0.11693   0.63595   0.34979   1.000
    H91     H    0.11693   0.63595   0.84980   1.000
    H92     H    0.61693   0.13594   0.34979   1.000
    H93     H    0.61693   0.13594   0.84981   1.000
    H94     H    0.61694   0.63595   0.34979   1.000
    H95     H    0.61693   0.63595   0.84980   1.000
    H96     H    0.10022   0.31281   0.01042   1.000
    H97     H    0.10022   0.31281   0.51043   1.000
    H98     H    0.10023   0.81282   0.01042   1.000
    H99     H    0.10022   0.81281   0.51043   1.000
    H100    H    0.60023   0.31281   0.01042   1.000
    H101    H    0.60022   0.31281   0.51043   1.000
    H102    H    0.60023   0.81281   0.01042   1.000
    H103    H    0.60022   0.81282   0.51043   1.000
    H104    H    0.17918   0.11273   0.46820   1.000
    H105    H    0.17917   0.11273   0.96821   1.000
    H106    H    0.17918   0.61273   0.46800   1.000
    H107    H    0.17919   0.61274   0.96820   1.000
    H108    H    0.67918   0.11273   0.46820   1.000
    H109    H    0.67919   0.11273   0.96821   1.000
    H110    H    0.67920   0.61274   0.46819   1.000
    H111    H    0.67919   0.61274   0.96820   1.000
    H112    H    0.20503   0.39136   0.32930   1.000
    H113    H    0.20503   0.39136   0.82931   1.000
    H114    H    0.20503   0.89137   0.32930   1.000
    H115    H    0.20503   0.89137   0.82931   1.000
    H116    H    0.70504   0.39136   0.32930   1.000
    H117    H    0.70503   0.39136   0.82931   1.000
    H118    H    0.70504   0.89137   0.32930   1.000
    H119    H    0.70504   0.89137   0.82931   1.000
    H120    H    0.13308   0.34977   0.13590   1.000
    H121    H    0.13306   0.34977   0.63590   1.000
    H122    H    0.13308   0.84978   0.13590   1.000
    H123    H    0.13307   0.84978   0.63591   1.000
    H124    H    0.63308   0.34977   0.13590   1.000
    H125    H    0.63308   0.34977   0.63591   1.000
    H126    H    0.63309   0.84978   0.13590   1.000
    H127    H    0.63308   0.84978   0.63591   1.000
    H128    H    0.14975   0.01039   0.31279   1.000
    H129    H    0.14974   0.01038   0.81280   1.000
    H130    H    0.14974   0.51039   0.31279   1.000
    H131    H    0.14975   0.51039   0.81280   1.000
    H132    H    0.64975   0.01038   0.31279   1.000
    H133    H    0.64975   0.01038   0.81280   1.000
    H134    H    0.64975   0.51040   0.31279   1.000
    H135    H    0.64975   0.51039   0.81280   1.000
    H136    H    0.07082   0.46815   0.11268   1.000
    H137    H    0.07081   0.46815   0.61270   1.000
    H138    H    0.07082   0.96816   0.11268   1.000
    H139    H    0.07081   0.96817   0.61269   1.000
    H140    H    0.57082   0.46815   0.11268   1.000
    H141    H    0.57082   0.46816   0.61269   1.000
    H142    H    0.57082   0.96816   0.11268   1.000
    H143    H    0.57082   0.96816   0.61200   1.000
    C144    C    0.35719   0.28900   0.00144   1.000
    C145    C    0.35720   0.28901   0.50145   1.000
    C146    C    0.35721   0.78901   0.00144   1.000
    C147    C    0.35720   0.78901   0.50145   1.000
    C148    C    0.85721   0.28901   0.00144   1.000
    C149    C    0.85719   0.28900   0.50145   1.000
    C150    C    0.85719   0.78901   0.00144   1.000
    C151    C    0.85720   0.78901   0.50145   1.000
    C152    C    0.42436   0.21698   0.08816   1.000
    C153    C    0.42436   0.21698   0.58817   1.000
    C154    C    0.42437   0.71699   0.08810   1.000
    C155    C    0.42437   0.71699   0.58810   1.000
    C156    C    0.92437   0.21698   0.08810   1.000
    C157    C    0.92436   0.21698   0.58810   1.000
    C158    C    0.92436   0.71699   0.08816   1.000
    C159    C    0.92437   0.71699   0.58810   1.000
    C160    C    0.38290   0.32789   0.11160   1.000
    C161    C    0.38290   0.32789   0.61160   1.000
    C162    C    0.38291   0.82790   0.11160   1.000
    C163    C    0.38290   0.82790   0.61160   1.000
    C164    C    0.88291   0.32790   0.11160   1.000
    C165    C    0.88289   0.32789   0.61160   1.000
    C166    C    0.88290   0.82790   0.11160   1.000
    C167    C    0.88290   0.82790   0.61161   1.000
    C168    C    0.33040   0.30290   0.43002   1.000
    C169    C    0.33037   0.30290   0.93004   1.000
    C170    C    0.33039   0.80291   0.43002   1.000
    C171    C    0.33039   0.80291   0.93003   1.000
    C172    C    0.83037   0.30290   0.43000   1.000
    C173    C    0.83040   0.30291   0.93003   1.000
    C174    C    0.83041   0.80291   0.43002   1.000
    C175    C    0.83039   0.80291   0.93003   1.000
    C176    C    0.39388   0.22749   0.02351   1.000
    C177    C    0.39389   0.22749   0.52352   1.000
    C178    C    0.39389   0.72750   0.02351   1.000
    C179    C    0.39388   0.72750   0.52352   1.000
    C180    C    0.89390   0.22750   0.02350   1.000
    C181    C    0.89388   0.22749   0.52352   1.000
    C182    C    0.89390   0.72750   0.02351   1.000
    C183    C    0.89390   0.72750   0.52350   1.000
    C184    C    0.35020   0.33901   0.04742   1.000
    C185    C    0.35021   0.33902   0.54743   1.000
    C186    C    0.35022   0.83902   0.04742   1.000
    C187    C    0.35021   0.83902   0.54743   1.000
    C188    C    0.85023   0.33902   0.04742   1.000
    C189    C    0.85020   0.33901   0.54743   1.000
    C190    C    0.85022   0.83902   0.04742   1.000
    C191    C    0.85022   0.83903   0.54743   1.000
    C192    C    0.39283   0.00147   0.28904   1.000
    C193    C    0.39283   0.00147   0.78906   1.000
    C194    C    0.39283   0.50148   0.28904   1.000
    C195    C    0.39285   0.50148   0.78905   1.000
    C196    C    0.89284   0.00147   0.28904   1.000
    C197    C    0.89286   0.00147   0.78905   1.000
    C198    C    0.89285   0.50148   0.28904   1.000
    C199    C    0.89284   0.50148   0.78905   1.000
    C200    C    0.32566   0.08817   0.21700   1.000
    C201    C    0.32565   0.08817   0.71702   1.000
    C202    C    0.32566   0.58818   0.21700   1.000
    C203    C    0.32566   0.58818   0.71701   1.000
    C204    C    0.82566   0.08817   0.21700   1.000
    C205    C    0.82567   0.08817   0.71701   1.000
    C206    C    0.82567   0.58818   0.21700   1.000
    C207    C    0.82566   0.58818   0.71701   1.000
    C208    C    0.36710   0.11163   0.32793   1.000
    C209    C    0.36710   0.11163   0.82794   1.000
    C210    C    0.36711   0.61164   0.32793   1.000
    C211    C    0.36712   0.61164   0.82793   1.000
    C212    C    0.86711   0.11163   0.32792   1.000
    C213    C    0.86712   0.11163   0.82793   1.000
    C214    C    0.86712   0.61164   0.32792   1.000
    C215    C    0.86711   0.61164   0.82790   1.000
    C216    C    0.41961   0.43005   0.30294   1.000
    C217    C    0.41964   0.43006   0.80294   1.000
    C218    C    0.41962   0.93006   0.30294   1.000
    C219    C    0.41960   0.93006   0.80290   1.000
    C220    C    0.91963   0.43005   0.30294   1.000
    C221    C    0.91962   0.43005   0.80295   1.000
    C222    C    0.91963   0.93006   0.30290   1.000
    C223    C    0.91962   0.93006   0.80295   1.000
    C224    C    0.35617   0.02353   0.22752   1.000
    C225    C    0.35615   0.02353   0.72753   1.000
    C226    C    0.35616   0.52354   0.22752   1.000
    C227    C    0.35617   0.52354   0.72753   1.000
    C228    C    0.85617   0.02353   0.22752   1.000
    C229    C    0.85617   0.02353   0.72753   1.000
    C230    C    0.85617   0.52354   0.22752   1.000
    C231    C    0.85616   0.52354   0.72753   1.000
    C232    C    0.39981   0.04746   0.33905   1.000
    C233    C    0.39979   0.04746   0.83907   1.000
    C234    C    0.39980   0.54747   0.33906   1.000
    C235    C    0.39983   0.54747   0.83906   1.000
    C236    C    0.89982   0.04746   0.33905   1.000
    C237    C    0.89982   0.04746   0.83906   1.000
    C238    C    0.89982   0.54747   0.33905   1.000
    C239    C    0.89981   0.54747   0.83906   1.000
    C240    C    0.14282   0.21100   0.49856   1.000
    C241    C    0.14280   0.21100   0.99850   1.000
    C242    C    0.14280   0.71101   0.49850   1.000
    C243    C    0.14281   0.71101   0.99857   1.000
    C244    C    0.64280   0.21100   0.49850   1.000
    C245    C    0.64282   0.21101   0.99857   1.000
    C246    C    0.64281   0.71101   0.49856   1.000
    C247    C    0.64281   0.71101   0.99857   1.000
    C248    C    0.07565   0.28302   0.41185   1.000
    C249    C    0.07564   0.28303   0.91186   1.000
    C250    C    0.07564   0.78303   0.41185   1.000
    C251    C    0.07565   0.78304   0.91186   1.000
    C252    C    0.57565   0.28302   0.41185   1.000
    C253    C    0.57565   0.28303   0.91186   1.000
    C254    C    0.57565   0.78303   0.41185   1.000
    C255    C    0.57565   0.78303   0.91186   1.000
    C256    C    0.11711   0.17211   0.38840   1.000
    C257    C    0.11710   0.17211   0.88841   1.000
    C258    C    0.11710   0.67212   0.38840   1.000
    C259    C    0.11711   0.67212   0.88841   1.000
    C260    C    0.61711   0.17211   0.38840   1.000
    C261    C    0.61711   0.17212   0.88841   1.000
    C262    C    0.61712   0.67212   0.38840   1.000
    C263    C    0.61711   0.67212   0.88841   1.000
    C264    C    0.16961   0.19710   0.06998   1.000
    C265    C    0.16960   0.19710   0.56999   1.000
    C266    C    0.16962   0.69711   0.06998   1.000
    C267    C    0.16960   0.69711   0.56999   1.000
    C268    C    0.66962   0.19710   0.06998   1.000
    C269    C    0.66960   0.19710   0.56999   1.000
    C270    C    0.66961   0.69711   0.06998   1.000
    C271    C    0.66960   0.69711   0.56999   1.000
    C272    C    0.10612   0.27251   0.47650   1.000
    C273    C    0.10612   0.27251   0.97651   1.000
    C274    C    0.10613   0.77252   0.47650   1.000
    C275    C    0.10613   0.77252   0.97651   1.000
    C276    C    0.60613   0.27251   0.47650   1.000
    C277    C    0.60613   0.27252   0.97651   1.000
    C278    C    0.60613   0.77252   0.47650   1.000
    C279    C    0.60613   0.77252   0.97651   1.000
    C280    C    0.14979   0.16099   0.45258   1.000
    C281    C    0.14979   0.16099   0.95259   1.000
    C282    C    0.14979   0.66099   0.45258   1.000
    C283    C    0.14980   0.66100   0.95259   1.000
    C284    C    0.64979   0.16099   0.45258   1.000
    C285    C    0.64980   0.16099   0.95259   1.000
    C286    C    0.64981   0.66100   0.45258   1.000
    C287    C    0.64980   0.66100   0.95259   1.000
    C288    C    0.10717   0.49854   0.21090   1.000
    C289    C    0.10716   0.49854   0.71098   1.000
    C290    C    0.10717   0.99854   0.21090   1.000
    C291    C    0.10716   0.99854   0.71098   1.000
    C292    C    0.60716   0.49854   0.21097   1.000
    C293    C    0.60717   0.49854   0.71098   1.000
    C294    C    0.60716   0.99854   0.21097   1.000
    C295    C    0.60717   0.99855   0.71098   1.000
    C296    C    0.17435   0.41184   0.28300   1.000
    C297    C    0.17434   0.41184   0.78301   1.000
    C298    C    0.17435   0.91184   0.28300   1.000
    C299    C    0.17434   0.91184   0.78300   1.000
    C300    C    0.67435   0.41184   0.28300   1.000
    C301    C    0.67435   0.41184   0.78301   1.000
    C302    C    0.67435   0.91184   0.28300   1.000
    C303    C    0.67435   0.91184   0.78301   1.000
    C304    C    0.13290   0.38838   0.17208   1.000
    C305    C    0.13289   0.38838   0.67209   1.000
    C306    C    0.13290   0.88838   0.17208   1.000
    C307    C    0.13289   0.88838   0.67209   1.000
    C308    C    0.63290   0.38838   0.17208   1.000
    C309    C    0.63290   0.38838   0.67209   1.000
    C310    C    0.63290   0.88838   0.17208   1.000
    C311    C    0.63290   0.88838   0.67209   1.000
    C312    C    0.08039   0.06995   0.19707   1.000
    C313    C    0.08038   0.06995   0.69708   1.000
    C314    C    0.08038   0.56996   0.19707   1.000
    C315    C    0.08038   0.56996   0.69708   1.000
    C316    C    0.58039   0.06995   0.19707   1.000
    C317    C    0.58037   0.06995   0.69700   1.000
    C318    C    0.58038   0.56996   0.19707   1.000
    C319    C    0.58037   0.56996   0.69708   1.000
    C320    C    0.14385   0.47647   0.27249   1.000
    C321    C    0.14385   0.47647   0.77250   1.000
    C322    C    0.14385   0.97648   0.27249   1.000
    C323    C    0.14385   0.97648   0.77250   1.000
    C324    C    0.64385   0.47647   0.27249   1.000
    C325    C    0.64385   0.47647   0.77250   1.000
    C326    C    0.64385   0.97648   0.27249   1.000
    C327    C    0.64385   0.97648   0.77250   1.000
    C328    C    0.10020   0.45255   0.16095   1.000
    C329    C    0.10019   0.45255   0.66096   1.000
    C330    C    0.10020   0.95256   0.16095   1.000
    C331    C    0.10020   0.95256   0.66096   1.000
    C332    C    0.60020   0.45255   0.16095   1.000
    C333    C    0.60020   0.45255   0.66096   1.000
    C334    C    0.60021   0.95256   0.16095   1.000
    C335    C    0.60020   0.95256   0.66096   1.000
    N336    N    0.42086   0.26751   0.13071   1.000
    N337    N    0.42087   0.26751   0.63072   1.000
    N338    N    0.42088   0.76752   0.13071   1.000
    N339    N    0.42087   0.76752   0.63072   1.000
    N340    N    0.92088   0.26751   0.13071   1.000
    N341    N    0.92086   0.26751   0.63072   1.000
    N342    N    0.92087   0.76752   0.13071   1.000
    N343    N    0.92087   0.76752   0.63072   1.000
    N344    N    0.32915   0.13073   0.26753   1.000
    N345    N    0.32914   0.13073   0.76754   1.000
    N346    N    0.32915   0.63074   0.26753   1.000
    N347    N    0.32916   0.63074   0.76754   1.000
    N348    N    0.82915   0.13073   0.26753   1.000
    N349    N    0.82917   0.13073   0.76754   1.000
    N350    N    0.82916   0.63074   0.26753   1.000
    N351    N    0.82915   0.63074   0.76754   1.000
    N352    N    0.07914   0.23250   0.36930   1.000
    N353    N    0.07913   0.23250   0.86931   1.000
    N354    N    0.07913   0.73250   0.36930   1.000
    N355    N    0.07914   0.73251   0.86931   1.000
    N356    N    0.57913   0.23249   0.36930   1.000
    N357    N    0.57914   0.23250   0.86931   1.000
    N358    N    0.57914   0.73251   0.36930   1.000
    N359    N    0.57914   0.73251   0.86931   1.000
    N360    N    0.17085   0.36928   0.23247   1.000
    N361    N    0.17084   0.36928   0.73249   1.000
    N362    N    0.17086   0.86929   0.23247   1.000
    N363    N    0.17084   0.86929   0.73249   1.000
    N364    N    0.67085   0.36928   0.23240   1.000
    N365    N    0.67085   0.36928   0.73240   1.000
    N366    N    0.67085   0.86929   0.23248   1.000
    N367    N    0.67085   0.86929   0.73249   1.000
    O368    O    0.28330   0.35450   0.41410   1.000
    O369    O    0.28332   0.35451   0.91413   1.000
    O370    O    0.28331   0.85451   0.41412   1.000
    O371    O    0.28330   0.85451   0.91413   1.000
    O372    O    0.78333   0.35451   0.41412   1.000
    O373    O    0.78330   0.35450   0.91410   1.000
    O374    O    0.78331   0.85451   0.41410   1.000
    O375    O    0.78331   0.85452   0.91410   1.000
    O376    O    0.45798   0.25811   0.19150   1.000
    O377    O    0.45797   0.25810   0.69157   1.000
    O378    O    0.45798   0.75811   0.19150   1.000
    O379    O    0.45797   0.75812   0.69157   1.000
    O380    O    0.95798   0.25810   0.19150   1.000
    O381    O    0.95797   0.25811   0.69157   1.000
    O382    O    0.95799   0.75812   0.19155   1.000
    O383    O    0.95798   0.75811   0.69150   1.000
    O384    O    0.36286   0.25818   0.39126   1.000
    O385    O    0.36287   0.25819   0.89128   1.000
    O386    O    0.36287   0.75819   0.39120   1.000
    O387    O    0.36286   0.75819   0.89127   1.000
    O388    O    0.86287   0.25819   0.39127   1.000
    O389    O    0.86285   0.25818   0.89127   1.000
    O390    O    0.86286   0.75819   0.39126   1.000
    O391    O    0.86286   0.75819   0.89120   1.000
    O392    O    0.46666   0.41415   0.35457   1.000
    O393    O    0.46662   0.41415   0.85459   1.000
    O394    O    0.46665   0.91416   0.35457   1.000
    O395    O    0.46665   0.91417   0.85458   1.000
    O396    O    0.96665   0.41415   0.35457   1.000
    O397    O    0.96664   0.41415   0.85458   1.000
    O398    O    0.96665   0.91416   0.35457   1.000
    O399    O    0.96663   0.91417   0.85459   1.000
    O400    O    0.29202   0.19156   0.25811   1.000
    O401    O    0.29201   0.19156   0.75812   1.000
    O402    O    0.29202   0.69156   0.25811   1.000
    O403    O    0.29201   0.69156   0.75813   1.000
    O404    O    0.79202   0.19156   0.25810   1.000
    O405    O    0.79200   0.19155   0.75813   1.000
    O406    O    0.79202   0.69156   0.25811   1.000
    O407    O    0.79201   0.69156   0.75812   1.000
    O408    O    0.38718   0.39129   0.25810   1.000
    O409    O    0.38716   0.39130   0.75820   1.000
    O410    O    0.38718   0.89130   0.25819   1.000
    O411    O    0.38718   0.89130   0.75820   1.000
    O412    O    0.88718   0.39130   0.25819   1.000
    O413    O    0.88718   0.39130   0.75820   1.000
    O414    O    0.88718   0.89131   0.25819   1.000
    O415    O    0.88718   0.89131   0.75820   1.000
    O416    O    0.21668   0.14549   0.08588   1.000
    O417    O    0.21668   0.14550   0.58589   1.000
    O418    O    0.21668   0.64550   0.08588   1.000
    O419    O    0.21669   0.64551   0.58589   1.000
    O420    O    0.71668   0.14549   0.08588   1.000
    O421    O    0.71668   0.14550   0.58589   1.000
    O422    O    0.71669   0.64550   0.08588   1.000
    O423    O    0.71668   0.64550   0.58589   1.000
    O424    O    0.04202   0.24190   0.30845   1.000
    O425    O    0.04202   0.24191   0.80846   1.000
    O426    O    0.04204   0.74191   0.30845   1.000
    O427    O    0.04202   0.74191   0.80846   1.000
    O428    O    0.54203   0.24190   0.30845   1.000
    O429    O    0.54202   0.24190   0.80846   1.000
    O430    O    0.54203   0.74191   0.30845   1.000
    O431    O    0.54202   0.74191   0.80846   1.000
    O432    O    0.13714   0.24182   0.10874   1.000
    O433    O    0.13714   0.24182   0.60875   1.000
    O434    O    0.13714   0.74183   0.10874   1.000
    O435    O    0.13714   0.74183   0.60875   1.000
    O436    O    0.63714   0.24182   0.10874   1.000
    O437    O    0.63713   0.24182   0.60875   1.000
    O438    O    0.63714   0.74183   0.10874   1.000
    O439    O    0.63714   0.74183   0.60875   1.000
    O440    O    0.03334   0.08585   0.14544   1.000
    O441    O    0.03334   0.08585   0.64545   1.000
    O442    O    0.03335   0.58586   0.14544   1.000
    O443    O    0.03334   0.58586   0.64545   1.000
    O444    O    0.53335   0.08585   0.14544   1.000
    O445    O    0.53334   0.08585   0.64545   1.000
    O446    O    0.53335   0.58586   0.14544   1.000
    O447    O    0.53335   0.58586   0.64545   1.000
    O448    O    0.20799   0.30845   0.24189   1.000
    O449    O    0.20799   0.30845   0.74190   1.000
    O450    O    0.20799   0.80846   0.24189   1.000
    O451    O    0.20799   0.80846   0.74190   1.000
    O452    O    0.70800   0.30845   0.24189   1.000
    O453    O    0.70798   0.30845   0.74190   1.000
    O454    O    0.70800   0.80846   0.24189   1.000
    O455    O    0.70799   0.80846   0.74190   1.000
    O456    O    0.11282   0.10871   0.24182   1.000
    O457    O    0.11282   0.10871   0.74183   1.000
    O458    O    0.11282   0.60872   0.24182   1.000
    O459    O    0.11282   0.60872   0.74183   1.000
    O460    O    0.61282   0.10871   0.24182   1.000
    O461    O    0.61282   0.10871   0.74183   1.000
    O462    O    0.61282   0.60872   0.24182   1.000
    O463    O    0.61282   0.60872   0.74183   1.000
loop_
    _geom_bond_atom_site_label_1
    _geom_bond_atom_site_label_2
    _geom_bond_distance
    _geom_bond_site_symmetry_2
    _ccdc_geom_bond_type
    C148   C180      1.39775      .   S
    C148   C188      1.40176      .   S
    C148   C173      1.51395  1_554   S
    C146   C178      1.39781      .   S
    C146   C186      1.40176      .   S
    C146   C171      1.51396  1_554   S
    C150   C182      1.39782      .   S
    C150   C190      1.40178      .   S
    C150   C175      1.51394  1_554   S
    C144   C176      1.39780      .   S
    C144   C184      1.40174      .   S
    C144   C169      1.51378  1_554   S
    H96    C273      1.08669  1_554   S
    H98    C275      1.08669  1_554   S
    H100   C277      1.08671  1_554   S
    H102   C279      1.08669  1_554   S
    C180   C156      1.38104      .   S
    C180   H37       1.08660  1_554   S
    C182   C158      1.38200      .   S
    C182   H39       1.08674  1_554   S
    C178   C154      1.38086      .   S
    C178   H35       1.08671  1_554   S
    C176   C152      1.38205      .   S
    C176   H33       1.08671  1_554   S
    H46    C190      1.08931      .   S
    H44    C188      1.08931      .   S
    H42    C186      1.08931      .   S
    H40    C184      1.08927      .   S
    C186   C162      1.38240      .   S
    C184   C160      1.38243      .   S
    C188   C164      1.38238      .   S
    C190   C166      1.38238      .   S
    C270   O422      1.24463      .   S
    C270   O438      1.29791      .   S
    C270   C247      1.51394  1_554   S
    C268   O420      1.24463      .   S
    C268   O436      1.29789      .   S
    C268   C245      1.51394  1_554   S
    C266   O418      1.24464      .   S
    C266   O434      1.29791      .   S
    C266   C243      1.51395  1_554   S
    C264   O416      1.24464      .   S
    C264   O432      1.29790      .   S
    C264   C241      1.51533  1_554   S
    C156   H20       1.09154      .   S
    C156   N340      1.36127      .   S
    C154   H18       1.09155      .   S
    C154   N338      1.36125      .   S
    C158   H22       1.09113      .   S
    C158   N342      1.36046      .   S
    C152   H16       1.09112      .   S
    C152   N336      1.36046      .   S
    O438   Cd14      2.23900      .   S
    O436   Cd12      2.23899      .   S
    O434   Cd10      2.23899      .   S
    O432   Cd8       2.23900      .   S
    C166   N342      1.36572      .   S
    C166   H30       1.08931      .   S
    C164   N340      1.36572      .   S
    C164   H28       1.08927      .   S
    C162   N338      1.36574      .   S
    C162   H26       1.08927      .   S
    C160   N336      1.36573      .   S
    C160   H24       1.08929      .   S
    H136   C328      1.08930      .   S
    H142   C334      1.08933      .   S
    H140   C332      1.08932      .   S
    H138   C330      1.08931      .   S
    N342   O382      1.33240      .   S
    N340   O380      1.33139      .   S
    N338   O378      1.33138      .   S
    N336   O376      1.33143      .   S
    H126   C310      1.08917      .   S
    H120   C304      1.08923      .   S
    H122   C306      1.08923      .   S
    H124   C308      1.08920      .   S
    O444   C316      1.24465      .   S
    O446   C318      1.24459      .   S
    O442   C314      1.24459      .   S
    O440   C312      1.24468      .   S
    C332   C308      1.38245      .   S
    C332   C292      1.40183      .   S
    C334   C310      1.38245      .   S
    C334   C294      1.40181      .   S
    C330   C306      1.38243      .   S
    C330   C290      1.40080      .   S
    C328   C304      1.38245      .   S
    C328   C288      1.40080      .   S
    H54    C206      1.09115      .   S
    H52    C204      1.09113      .   S
    H50    C202      1.09112      .   S
    H48    C200      1.09114      .   S
    C304   N360      1.36563      .   S
    C306   N362      1.36565      .   S
    C308   N364      1.36436      .   S
    C310   N366      1.36579      .   S
    H68    C230      1.08709      .   S
    H70    C228      1.08685  1_565   S
    H66    C224      1.08685  1_565   S
    H64    C226      1.08693      .   S
    O380   Cd4       2.40796      .   S
    O376   Cd0       2.40684      .   S
    O378   Cd2       2.40790      .   S
    O382   Cd6       2.40607      .   S
    C318   C292      1.51427      .   S
    C318   O462      1.29792      .   S
    C316   C294      1.51388  1_545   S
    C316   O460      1.29786      .   S
    C314   C288      1.51402      .   S
    C314   O458      1.29793      .   S
    C312   C290      1.51367  1_545   S
    C312   O456      1.29787      .   S
    C290   C322      1.39909      .   S
    C288   C320      1.39907      .   S
    C294   C326      1.39787      .   S
    C292   C324      1.39784      .   S
    Cd14   O462      2.23883      .   S
    Cd14   O454      2.40690      .   S
    Cd14   O430      2.40689      .   S
    Cd12   O460      2.23881      .   S
    Cd12   O452      2.40686      .   S
    Cd12   O428      2.40687      .   S
    Cd8    O456      2.23883      .   S
    Cd8    O448      2.40679      .   S
    Cd8    O424      2.40692      .   S
    Cd10   O458      2.23883      .   S
    Cd10   O450      2.40679      .   S
    Cd10   O426      2.40686      .   S
    C206   C230      1.38199      .   S
    C206   N350      1.36057      .   S
    C204   C228      1.38201      .   S
    C204   N348      1.36056      .   S
    C202   C226      1.38199      .   S
    C202   N346      1.36055      .   S
    C200   C224      1.38198      .   S
    C200   N344      1.36055      .   S
    C224   C192      1.39777      .   S
    C230   C198      1.39779      .   S
    C228   C196      1.39776      .   S
    C226   C194      1.39778      .   S
    N364   O452      1.33260      .   S
    N364   C300      1.36166      .   S
    N362   O450      1.33241      .   S
    N362   C298      1.36056      .   S
    N360   O448      1.33242      .   S
    N360   C296      1.36054      .   S
    N366   O454      1.33240      .   S
    N366   C302      1.36040      .   S
    O408   Cd0       2.23902      .   S
    O408   C216      1.29910      .   S
    O404   N348      1.33244      .   S
    O404   Cd4       2.40686      .   S
    O406   N350      1.33242      .   S
    O406   Cd6       2.40657      .   S
    O400   N344      1.33242      .   S
    O400   Cd0       2.40653      .   S
    O402   N346      1.33240      .   S
    O402   Cd2       2.40685      .   S
    O410   Cd2       2.23885      .   S
    O410   C218      1.29791      .   S
    O414   Cd6       2.23853      .   S
    O414   C222      1.29738      .   S
    O412   Cd4       2.23884      .   S
    O412   C220      1.29791      .   S
    N350   C214      1.36564      .   S
    N344   C208      1.36582      .   S
    N348   C212      1.36565      .   S
    N346   C210      1.36582      .   S
    C322   C298      1.38198      .   S
    C322   H128      1.08666  1_565   S
    C320   C296      1.38198      .   S
    C320   H130      1.08692      .   S
    C324   C300      1.38198      .   S
    C324   H134      1.08692      .   S
    C326   C302      1.38198      .   S
    C326   H132      1.08665  1_565   S
    C302   H118      1.09121      .   S
    C300   H116      1.09119      .   S
    C298   H114      1.09116      .   S
    C296   H112      1.09115      .   S
    Cd0    O384      2.24002      .   S
    Cd6    O390      2.24003      .   S
    Cd2    O386      2.23764      .   S
    Cd4    O388      2.23899      .   S
    C198   C220      1.51425      .   S
    C198   C238      1.40172      .   S
    C196   C222      1.51377  1_545   S
    C196   C236      1.40174      .   S
    C194   C216      1.51425      .   S
    C194   C234      1.40187      .   S
    C192   C218      1.51389  1_545   S
    C192   C232      1.40174      .   S
    C222   O398      1.24520      .   S
    C216   O392      1.24472      .   S
    C218   O394      1.24461      .   S
    C220   O396      1.24455      .   S
    O430   N358      1.33254      .   S
    O424   N352      1.33258      .   S
    O428   N356      1.33250      .   S
    O426   N354      1.33247      .   S
    C212   C236      1.38245      .   S
    C212   H60       1.08925      .   S
    C214   C238      1.38245      .   S
    C214   H62       1.08922      .   S
    C208   C232      1.38241      .   S
    C208   H56       1.08910      .   S
    C210   C234      1.38243      .   S
    C210   H58       1.08910      .   S
    C236   H76       1.08929      .   S
    C232   H72       1.08893      .   S
    C238   H78       1.08930      .   S
    C234   H74       1.08931      .   S
    H94    C262      1.08924      .   S
    H92    C260      1.08925      .   S
    H90    C258      1.08922      .   S
    H88    C256      1.08913      .   S
    N354   C258      1.36571      .   S
    N354   C250      1.36045      .   S
    N352   C256      1.36568      .   S
    N352   C248      1.36045      .   S
    N358   C262      1.36570      .   S
    N358   C254      1.36045      .   S
    N356   C260      1.36569      .   S
    N356   C252      1.36045      .   S
    C258   C282      1.38242      .   S
    C262   C286      1.38241      .   S
    C256   C280      1.38239      .   S
    C260   C284      1.38242      .   S
    O386   C170      1.29865      .   S
    O384   C168      1.29786      .   S
    O390   C174      1.29785      .   S
    O388   C172      1.29748      .   S
    H80    C248      1.09112      .   S
    H82    C250      1.09110      .   S
    H84    C252      1.09111      .   S
    H86    C254      1.09111      .   S
    C250   C274      1.38205      .   S
    C248   C272      1.38202      .   S
    C252   C276      1.38204      .   S
    C254   C278      1.38204      .   S
    O374   C174      1.24473      .   S
    O368   C168      1.24473      .   S
    O372   C172      1.24453      .   S
    O370   C170      1.24464      .   S
    C172   C149      1.51474      .   S
    C168   C145      1.51431      .   S
    C170   C147      1.51433      .   S
    C174   C151      1.51430      .   S
    C282   H106      1.08822      .   S
    C282   C242      1.40086      .   S
    C286   H110      1.08927      .   S
    C286   C246      1.40170      .   S
    C284   H108      1.08932      .   S
    C284   C244      1.40087      .   S
    C280   H104      1.08931      .   S
    C280   C240      1.40176      .   S
    C278   C246      1.39776      .   S
    C278   H103      1.08701      .   S
    C272   C240      1.39777      .   S
    C272   H97       1.08704      .   S
    C274   C242      1.39738      .   S
    C274   H99       1.08700      .   S
    C276   C244      1.39740      .   S
    C276   H101      1.08701      .   S
    H34    C179      1.08702      .   S
    H38    C183      1.08678      .   S
    H32    C177      1.08705      .   S
    H36    C181      1.08702      .   S
    C242   C267      1.51550      .   S
    C244   C269      1.51549      .   S
    C240   C265      1.51429      .   S
    C246   C271      1.51430      .   S
    C151   C183      1.39771      .   S
    C151   C191      1.40176      .   S
    C149   C181      1.39781      .   S
    C149   C189      1.40172      .   S
    C147   C179      1.39780      .   S
    C147   C187      1.40175      .   S
    C145   C177      1.39782      .   S
    C145   C185      1.40174      .   S
    C183   C159      1.38103      .   S
    C177   C153      1.38201      .   S
    C181   C157      1.38071      .   S
    C179   C155      1.38069      .   S
    H47    C191      1.08936      .   S
    H45    C189      1.08925      .   S
    H43    C187      1.08925      .   S
    H41    C185      1.08925      .   S
    C191   C167      1.38238      .   S
    C189   C165      1.38225      .   S
    C187   C163      1.38223      .   S
    C185   C161      1.38220      .   S
    C265   O417      1.24463      .   S
    C265   O433      1.29789      .   S
    C271   O423      1.24463      .   S
    C271   O439      1.29791      .   S
    C267   O419      1.24463      .   S
    C267   O435      1.29789      .   S
    C269   O421      1.24462      .   S
    C269   O437      1.29790      .   S
    C159   H23       1.09163      .   S
    C159   N343      1.36139      .   S
    C157   H21       1.09162      .   S
    C157   N341      1.36139      .   S
    C155   H19       1.09163      .   S
    C155   N339      1.36139      .   S
    C153   H17       1.09111      .   S
    C153   N337      1.36047      .   S
    O433   Cd9       2.23901      .   S
    O437   Cd13      2.23901      .   S
    O435   Cd11      2.23902      .   S
    O439   Cd15      2.23900      .   S
    C165   N341      1.36578      .   S
    C165   H29       1.08943      .   S
    C163   N339      1.36579      .   S
    C163   H27       1.08942      .   S
    C161   N337      1.36578      .   S
    C161   H25       1.08940      .   S
    C167   N343      1.36573      .   S
    C167   H31       1.08928      .   S
    H143   C335      1.10190      .   S
    H139   C331      1.08933      .   S
    H141   C333      1.08930      .   S
    H137   C329      1.08915      .   S
    N337   O377      1.33250      .   S
    N339   O379      1.33249      .   S
    N341   O381      1.33251      .   S
    N343   O383      1.33122      .   S
    H121   C305      1.08936      .   S
    H123   C307      1.08920      .   S
    H125   C309      1.08922      .   S
    H127   C311      1.08922      .   S
    O447   C319      1.24461      .   S
    O441   C313      1.24465      .   S
    O445   C317      1.24327      .   S
    O443   C315      1.24468      .   S
    C335   C311      1.38245      .   S
    C335   C295      1.40185      .   S
    C333   C309      1.38245      .   S
    C333   C293      1.40186      .   S
    C329   C305      1.38244      .   S
    C329   C289      1.40184      .   S
    C331   C307      1.38244      .   S
    C331   C291      1.40183      .   S
    H55    C207      1.09114      .   S
    H53    C205      1.09119      .   S
    H51    C203      1.09120      .   S
    H49    C201      1.09130      .   S
    C307   N363      1.36582      .   S
    C311   N367      1.36582      .   S
    C309   N365      1.36419      .   S
    C305   N361      1.36584      .   S
    H71    C229      1.08714  1_565   S
    H65    C227      1.08712      .   S
    H67    C225      1.08669  1_565   S
    H69    C231      1.08694      .   S
    O383   Cd7       2.40815      .   S
    O377   Cd1       2.40689      .   S
    O379   Cd3       2.40562      .   S
    O381   Cd5       2.40561      .   S
    C317   C295      1.51419  1_545   S
    C317   O461      1.29906      .   S
    C319   C293      1.51428      .   S
    C319   O463      1.29795      .   S
    C315   C289      1.51425      .   S
    C315   O459      1.29788      .   S
    C313   C291      1.51388  1_545   S
    C313   O457      1.29790      .   S
    C295   C327      1.39783      .   S
    C293   C325      1.39780      .   S
    C291   C323      1.39784      .   S
    C289   C321      1.39784      .   S
    Cd11   O459      2.23880      .   S
    Cd11   O451      2.40687      .   S
    Cd11   O427      2.40688      .   S
    Cd13   O461      2.23881      .   S
    Cd13   O453      2.40678      .   S
    Cd13   O429      2.40686      .   S
    Cd15   O463      2.23882      .   S
    Cd15   O455      2.40677      .   S
    Cd15   O431      2.40690      .   S
    Cd9    O457      2.23883      .   S
    Cd9    O449      2.40679      .   S
    Cd9    O425      2.40691      .   S
    C207   C231      1.38199      .   S
    C207   N351      1.36057      .   S
    C203   C227      1.38198      .   S
    C203   N347      1.36059      .   S
    C205   C229      1.38199      .   S
    C205   N349      1.36057      .   S
    C201   C225      1.38196      .   S
    C201   N345      1.36041      .   S
    C225   C193      1.39797      .   S
    C227   C195      1.39780      .   S
    C229   C197      1.39784      .   S
    C231   C199      1.39779      .   S
    N365   O453      1.33261      .   S
    N365   C301      1.36180      .   S
    N367   O455      1.33239      .   S
    N367   C303      1.36040      .   S
    N361   O449      1.33239      .   S
    N361   C297      1.36040      .   S
    N363   O451      1.33239      .   S
    N363   C299      1.36023      .   S
    O401   N345      1.33238      .   S
    O401   Cd1       2.40687      .   S
    O407   N351      1.33242      .   S
    O407   Cd7       2.40687      .   S
    O403   N347      1.33242      .   S
    O403   Cd3       2.40650      .   S
    O405   N349      1.33241      .   S
    O405   Cd5       2.40657      .   S
    O409   Cd1       2.23882      .   S
    O409   C217      1.29792      .   S
    O411   Cd3       2.23849      .   S
    O411   C219      1.29709      .   S
    O413   Cd5       2.23849      .   S
    O413   C221      1.29789      .   S
    O415   Cd7       2.23884      .   S
    O415   C223      1.29790      .   S
    N345   C209      1.36582      .   S
    N351   C215      1.36511      .   S
    N349   C213      1.36562      .   S
    N347   C211      1.36563      .   S
    C327   C303      1.38198      .   S
    C327   H133      1.08667  1_565   S
    C321   C297      1.38196      .   S
    C321   H131      1.08692      .   S
    C323   C299      1.38195      .   S
    C323   H129      1.08665  1_565   S
    C325   C301      1.38199      .   S
    C325   H135      1.08692      .   S
    C299   H115      1.09136      .   S
    C297   H113      1.09118      .   S
    C301   H117      1.09115      .   S
    C303   H119      1.09118      .   S
    Cd5    O389      2.24021      .   S
    Cd3    O387      2.24019      .   S
    Cd7    O391      2.23746      .   S
    Cd1    O385      2.23899      .   S
    C199   C221      1.51425      .   S
    C199   C239      1.40174      .   S
    C195   C217      1.51423      .   S
    C195   C235      1.40175      .   S
    C197   C223      1.51389  1_545   S
    C197   C237      1.40169      .   S
    C193   C219      1.51366  1_545   S
    C193   C233      1.40171      .   S
    C219   O395      1.24558      .   S
    C217   O393      1.24464      .   S
    C221   O397      1.24459      .   S
    C223   O399      1.24467      .   S
    O429   N357      1.33258      .   S
    O427   N355      1.33257      .   S
    O425   N353      1.33252      .   S
    O431   N359      1.33257      .   S
    C215   C239      1.38253      .   S
    C215   H63       1.08967      .   S
    C211   C235      1.38245      .   S
    C211   H59       1.08920      .   S
    C213   C237      1.38244      .   S
    C213   H61       1.08920      .   S
    C209   C233      1.38244      .   S
    C209   H57       1.08910      .   S
    C235   H75       1.08930      .   S
    C237   H77       1.08932      .   S
    C239   H79       1.08931      .   S
    C233   H73       1.08931      .   S
    H91    C259      1.08928      .   S
    H95    C263      1.08927      .   S
    H89    C257      1.08910      .   S
    H93    C261      1.08913      .   S
    N353   C257      1.36571      .   S
    N353   C249      1.36045      .   S
    N355   C259      1.36569      .   S
    N355   C251      1.36044      .   S
    N357   C261      1.36569      .   S
    N357   C253      1.36045      .   S
    N359   C263      1.36570      .   S
    N359   C255      1.36044      .   S
    C259   C283      1.38242      .   S
    C263   C287      1.38241      .   S
    C257   C281      1.38241      .   S
    C261   C285      1.38242      .   S
    O391   C175      1.29878      .   S
    O387   C171      1.29785      .   S
    O389   C173      1.29786      .   S
    O385   C169      1.29788      .   S
    H85    C253      1.09112      .   S
    H87    C255      1.09112      .   S
    H83    C251      1.09113      .   S
    H81    C249      1.09110      .   S
    C255   C279      1.38203      .   S
    C253   C277      1.38205      .   S
    C251   C275      1.38204      .   S
    C249   C273      1.38204      .   S
    O373   C173      1.24479      .   S
    O375   C175      1.24477      .   S
    O369   C169      1.24466      .   S
    O371   C171      1.24464      .   S
    C287   H111      1.08927      .   S
    C287   C247      1.40172      .   S
    C285   H109      1.08931      .   S
    C285   C245      1.40172      .   S
    C283   H107      1.08926      .   S
    C283   C243      1.40172      .   S
    C281   H105      1.08930      .   S
    C281   C241      1.40074      .   S
    C273   C241      1.39734      .   S
    C275   C243      1.39776      .   S
    C277   C245      1.39776      .   S
    C279   C247      1.39777      .   S
    O376   Cd12      2.47491      .   S
    O377   Cd13      2.47471      .   S
    O378   Cd14      2.47491      .   S
    O379   Cd15      2.47481      .   S
    O380   Cd8       2.47485  1_655   S
    O381   Cd9       2.47485  1_655   S
    O382   Cd10      2.47470  1_655   S
    O383   Cd11      2.47485  1_655   S
    O400   Cd8       2.47469      .   S
    O401   Cd9       2.47461      .   S
    O402   Cd10      2.47463      .   S
    O403   Cd11      2.47469      .   S
    O404   Cd12      2.47459      .   S
    O405   Cd13      2.47466      .   S
    O406   Cd14      2.47461      .   S
    O407   Cd15      2.47464      .   S
    O424   Cd4       2.47470  1_455   S
    O425   Cd5       2.47490  1_455   S
    O426   Cd6       2.47497  1_455   S
    O427   Cd7       2.47476  1_455   S
    O428   Cd0       2.47487      .   S
    O429   Cd1       2.47474      .   S
    O430   Cd2       2.47472      .   S
    O431   Cd3       2.47489      .   S
    O448   Cd0       2.47436      .   S
    O449   Cd1       2.47465      .   S
    O450   Cd2       2.47472      .   S
    O451   Cd3       2.47417      .   S
    O452   Cd4       2.47460      .   S
    O453   Cd5       2.47426      .   S
    O454   Cd6       2.47417      .   S
    O455   Cd7       2.47463      .   S
