# CIF file generated by openbabel 2.4.90, see http://openbabel.sf.net
data_I
_chemical_name_common ''
_cell_length_a 17.675
_cell_length_b 17.661
_cell_length_c 17.684
_cell_angle_alpha 90.659
_cell_angle_beta 119.543
_cell_angle_gamma 119.714
_space_group_name_H-M_alt 'P 1'
_space_group_name_Hall 'P 1'
loop_
    _symmetry_equiv_pos_as_xyz
    x,y,z
loop_
    _atom_site_label
    _atom_site_type_symbol
    _atom_site_fract_x
    _atom_site_fract_y
    _atom_site_fract_z
    _atom_site_occupancy
    H0      H    0.86754   0.51857   0.92910   1.000
    H1      H    0.01543   0.69065   0.01330   1.000
    H2      H    0.16380   0.76111   0.99513   1.000
    H3      H    0.21035   0.46438   0.80715   1.000
    H4      H    0.26144   0.35703   0.82615   1.000
    H5      H    0.99854   0.17692   0.84791   1.000
    H6      H    0.95628   0.29367   0.82409   1.000
    H7      H    0.31732   0.27244   0.91566   1.000
    H8      H    0.23732   0.21478   0.79344   1.000
    H9      H    0.63297   0.56191   0.65127   1.000
    H10     H    0.48523   0.49840   0.67543   1.000
    H11     H    0.33650   0.33176   0.59720   1.000
    H12     H    0.28935   0.09662   0.25381   1.000
    H13     H    0.23879   0.06456   0.09570   1.000
    H14     H    0.50221   0.34943   0.17910   1.000
    H15     H    0.54395   0.36781   0.33785   1.000
    H16     H    0.18356   0.09827   0.95567   1.000
    H17     H    0.26351   0.05596   0.97794   1.000
    H18     H    0.58996   0.07124   0.43873   1.000
    H19     H    0.67819   0.98759   0.50220   1.000
    H20     H    0.76640   0.00571   0.66838   1.000
    H21     H    0.65617   0.19225   0.90281   1.000
    H22     H    0.53090   0.17471   0.93578   1.000
    H23     H    0.32949   0.15319   0.65201   1.000
    H24     H    0.46901   0.17559   0.63262   1.000
    H25     H    0.35720   0.08599   0.90277   1.000
    H26     H    0.42220   0.20856   0.94526   1.000
    H27     H    0.91006   0.34836   0.48145   1.000
    H28     H    0.82234   0.32397   0.30983   1.000
    H29     H    0.73429   0.40218   0.23972   1.000
    H30     H    0.84411   0.74691   0.53653   1.000
    H31     H    0.96985   0.90523   0.64449   1.000
    H32     H    0.17069   0.82194   0.82362   1.000
    H33     H    0.03075   0.66299   0.70630   1.000
    H34     H    0.14361   0.04584   0.72956   1.000
    H35     H    0.07869   0.02321   0.78707   1.000
    H36     H    0.41006   0.92872   0.56126   1.000
    H37     H    0.32186   0.01237   0.49779   1.000
    H38     H    0.23365   0.99426   0.33161   1.000
    H39     H    0.34386   0.80770   0.09718   1.000
    H40     H    0.46914   0.82526   0.06422   1.000
    H41     H    0.67055   0.84679   0.34799   1.000
    H42     H    0.53102   0.82437   0.36738   1.000
    H43     H    0.64283   0.91398   0.09721   1.000
    H44     H    0.57784   0.79140   0.05475   1.000
    H45     H    0.08997   0.65160   0.51854   1.000
    H46     H    0.17769   0.67598   0.69010   1.000
    H47     H    0.26573   0.59777   0.76027   1.000
    H48     H    0.15592   0.25306   0.46340   1.000
    H49     H    0.03020   0.09474   0.35551   1.000
    H50     H    0.82934   0.17801   0.17637   1.000
    H51     H    0.96928   0.33697   0.29368   1.000
    H52     H    0.85642   0.95413   0.27044   1.000
    H53     H    0.92135   0.97675   0.21293   1.000
    H54     H    0.13249   0.48138   0.07080   1.000
    H55     H    0.98461   0.30931   0.98669   1.000
    H56     H    0.83623   0.23884   0.00486   1.000
    H57     H    0.78967   0.53557   0.19283   1.000
    H58     H    0.73859   0.64292   0.17385   1.000
    H59     H    0.00150   0.82305   0.15210   1.000
    H60     H    0.04375   0.70629   0.17591   1.000
    H61     H    0.68272   0.72752   0.08434   1.000
    H62     H    0.76271   0.78518   0.20656   1.000
    H63     H    0.36707   0.43805   0.34872   1.000
    H64     H    0.51482   0.50157   0.32456   1.000
    H65     H    0.66354   0.66821   0.40271   1.000
    H66     H    0.71069   0.90335   0.74619   1.000
    H67     H    0.76125   0.93540   0.90430   1.000
    H68     H    0.49782   0.65053   0.82083   1.000
    H69     H    0.45608   0.63215   0.66215   1.000
    H70     H    0.81649   0.90168   0.04433   1.000
    H71     H    0.73653   0.94400   0.02206   1.000
    C72     C    0.86024   0.39863   0.81551   1.000
    C73     C    0.94026   0.50115   0.86886   1.000
    C74     C    0.93443   0.55289   0.92336   1.000
    C75     C    0.01582   0.64745   0.96922   1.000
    C76     C    0.09975   0.68771   0.95933   1.000
    C77     C    0.10063   0.63173   0.90384   1.000
    C78     C    0.18647   0.66568   0.88601   1.000
    C79     C    0.16538   0.40062   0.81709   1.000
    C80     C    0.19454   0.33939   0.82860   1.000
    C81     C    0.13458   0.25753   0.84045   1.000
    C82     C    0.04768   0.24024   0.83980   1.000
    C83     C    0.02426   0.30486   0.82729   1.000
    C84     C    0.24487   0.20815   0.85818   1.000
    C85     C    0.63977   0.45531   0.53845   1.000
    C86     C    0.55988   0.42877   0.56095   1.000
    C87     C    0.56594   0.48925   0.61862   1.000
    C88     C    0.48461   0.45377   0.63170   1.000
    C89     C    0.40049   0.35990   0.58793   1.000
    C90     C    0.39939   0.30340   0.53100   1.000
    C91     C    0.31337   0.19965   0.47902   1.000
    N92     N    0.97804   0.45897   0.13913   1.000
    N93     N    0.58214   0.76573   0.69723   1.000
    N94     N    0.52207   0.66100   0.48100   1.000
    O95     O    0.87549   0.36204   0.76775   1.000
    C96     C    0.33457   0.15157   0.23525   1.000
    C97     C    0.30572   0.13396   0.14505   1.000
    C98     C    0.36598   0.20582   0.12343   1.000
    C99     C    0.45285   0.29211   0.19313   1.000
    C100    C    0.47598   0.30299   0.28097   1.000
    C101    C    0.25601   0.11326   0.96389   1.000
    C102    C    0.58266   0.18401   0.54480   1.000
    C103    C    0.63204   0.13100   0.57140   1.000
    C104    C    0.62980   0.07692   0.51119   1.000
    C105    C    0.67871   0.03140   0.54663   1.000
    C106    C    0.72859   0.04123   0.64020   1.000
    C107    C    0.72756   0.09626   0.69650   1.000
    C108    C    0.77908   0.11405   0.79994   1.000
    C109    C    0.58283   0.18273   0.84831   1.000
    C110    C    0.51068   0.17204   0.86645   1.000
    C111    C    0.41745   0.16074   0.79517   1.000
    C112    C    0.40064   0.16101   0.70890   1.000
    C113    C    0.47714   0.17269   0.69745   1.000
    C114    C    0.35076   0.14367   0.88807   1.000
    C115    C    0.91696   0.46168   0.60128   1.000
    C116    C    0.86782   0.43899   0.49902   1.000
    C117    C    0.87028   0.38108   0.44730   1.000
    C118    C    0.82165   0.36782   0.35299   1.000
    C119    C    0.77185   0.41168   0.31294   1.000
    C120    C    0.77265   0.46887   0.36888   1.000
    C121    C    0.72120   0.52093   0.33513   1.000
    C122    C    0.91745   0.76556   0.60023   1.000
    C123    C    0.98982   0.85589   0.66183   1.000
    C124    C    0.08304   0.87761   0.74361   1.000
    C125    C    0.09958   0.80788   0.76041   1.000
    C126    C    0.02284   0.71991   0.69548   1.000
    C127    C    0.15008   0.03743   0.79300   1.000
    C128    C    0.25044   0.12563   0.87595   1.000
    C129    C    0.41735   0.81592   0.45510   1.000
    C130    C    0.36799   0.86895   0.42856   1.000
    C131    C    0.37021   0.92302   0.48879   1.000
    C132    C    0.32134   0.96857   0.45336   1.000
    C133    C    0.27144   0.95872   0.35975   1.000
    C134    C    0.27249   0.90371   0.30349   1.000
    C135    C    0.22096   0.88591   0.20004   1.000
    C136    C    0.41720   0.81723   0.15168   1.000
    C137    C    0.48935   0.82793   0.13355   1.000
    C138    C    0.58259   0.83924   0.20483   1.000
    C139    C    0.59940   0.83896   0.29110   1.000
    C140    C    0.52289   0.82727   0.30254   1.000
    C141    C    0.64928   0.85630   0.11193   1.000
    C142    C    0.08308   0.53829   0.39871   1.000
    C143    C    0.13220   0.56097   0.50097   1.000
    C144    C    0.12977   0.61889   0.55270   1.000
    C145    C    0.17837   0.63213   0.64700   1.000
    C146    C    0.22819   0.58829   0.68705   1.000
    C147    C    0.22738   0.53109   0.63110   1.000
    C148    C    0.27884   0.47903   0.66485   1.000
    C149    C    0.08259   0.23441   0.39976   1.000
    C150    C    0.00000   0.14408   0.33817   1.000
    C151    C    0.91700   0.12235   0.25639   1.000
    C152    C    0.90046   0.19208   0.23958   1.000
    C153    C    0.97719   0.28006   0.30451   1.000
    C154    C    0.84996   0.96253   0.20641   1.000
    C155    C    0.13980   0.60132   0.18448   1.000
    C156    C    0.05978   0.49880   0.13114   1.000
    C157    C    0.06560   0.44706   0.07663   1.000
    C158    C    0.98422   0.35251   0.03078   1.000
    C159    C    0.90027   0.31225   0.04066   1.000
    C160    C    0.89939   0.36823   0.09614   1.000
    C161    C    0.81356   0.33428   0.11397   1.000
    C162    C    0.83465   0.59934   0.18290   1.000
    C163    C    0.80550   0.66057   0.17140   1.000
    C164    C    0.86546   0.74243   0.15956   1.000
    C165    C    0.95236   0.75972   0.16021   1.000
    C166    C    0.97578   0.69510   0.17271   1.000
    C167    C    0.75517   0.79181   0.14182   1.000
    C168    C    0.36027   0.54465   0.46155   1.000
    C169    C    0.44015   0.57120   0.43904   1.000
    C170    C    0.43410   0.51072   0.38139   1.000
    C171    C    0.51543   0.54620   0.36824   1.000
    C172    C    0.59956   0.64006   0.41207   1.000
    C173    C    0.60064   0.69657   0.46899   1.000
    C174    C    0.68666   0.80031   0.52090   1.000
    C175    C    0.66546   0.84839   0.76475   1.000
    C176    C    0.69432   0.86601   0.85495   1.000
    C177    C    0.63406   0.79414   0.87657   1.000
    C178    C    0.54719   0.70786   0.80687   1.000
    C179    C    0.52406   0.69697   0.71903   1.000
    C180    C    0.74403   0.88669   0.03611   1.000
    C181    C    0.74960   0.87433   0.12400   1.000
    N182    N    0.08207   0.38473   0.81641   1.000
    N183    N    0.02199   0.54099   0.86085   1.000
    N184    N    0.41789   0.23424   0.30277   1.000
    N185    N    0.47796   0.33896   0.51892   1.000
    N186    N    0.56747   0.18312   0.76567   1.000
    N187    N    0.67957   0.13890   0.66096   1.000
    N188    N    0.93255   0.69802   0.61571   1.000
    N189    N    0.82035   0.48111   0.45939   1.000
    N190    N    0.43256   0.81684   0.23432   1.000
    N191    N    0.32048   0.86107   0.33903   1.000
    N192    N    0.06748   0.30195   0.38428   1.000
    N193    N    0.17967   0.51885   0.54060   1.000
    N194    N    0.91797   0.61523   0.18358   1.000
    O195    O    0.78286   0.35548   0.82375   1.000
    O196    O    0.17235   0.60237   0.83261   1.000
    O197    O    0.26079   0.74977   0.92238   1.000
    O198    O    0.15334   0.19137   0.85219   1.000
    O199    O    0.62443   0.39213   0.48668   1.000
    O200    O    0.71713   0.54100   0.57255   1.000
    O201    O    0.32727   0.16025   0.42973   1.000
    O202    O    0.23916   0.16174   0.48883   1.000
    O203    O    0.34755   0.19882   0.03872   1.000
    O204    O    0.59359   0.23160   0.60784   1.000
    O205    O    0.53141   0.17573   0.45947   1.000
    O206    O    0.76852   0.16688   0.83910   1.000
    O207    O    0.82727   0.07823   0.83780   1.000
    O208    O    0.34019   0.14986   0.80271   1.000
    O209    O    0.90581   0.51361   0.63782   1.000
    O210    O    0.96831   0.42755   0.64431   1.000
    O211    O    0.73142   0.57048   0.39830   1.000
    O212    O    0.67336   0.51093   0.25124   1.000
    O213    O    0.16052   0.96244   0.81010   1.000
    O214    O    0.40643   0.76834   0.39214   1.000
    O215    O    0.46862   0.82422   0.54052   1.000
    O216    O    0.23151   0.83308   0.16085   1.000
    O217    O    0.17277   0.92173   0.16213   1.000
    O218    O    0.65986   0.85013   0.19730   1.000
    O219    O    0.09423   0.48636   0.36217   1.000
    O220    O    0.03172   0.57241   0.35568   1.000
    O221    O    0.26861   0.42948   0.60160   1.000
    O222    O    0.32666   0.48902   0.74874   1.000
    O223    O    0.83952   0.03753   0.18990   1.000
    O224    O    0.12454   0.63791   0.23223   1.000
    O225    O    0.21716   0.64448   0.17623   1.000
    O226    O    0.82769   0.39758   0.16740   1.000
    O227    O    0.73925   0.25018   0.07761   1.000
    O228    O    0.84671   0.80859   0.14782   1.000
    O229    O    0.37561   0.60783   0.51332   1.000
    O230    O    0.28290   0.45896   0.42743   1.000
    O231    O    0.67276   0.83972   0.57027   1.000
    O232    O    0.76088   0.83823   0.51116   1.000
    O233    O    0.65249   0.80114   0.96128   1.000
loop_
    _geom_bond_atom_site_label_1
    _geom_bond_atom_site_label_2
    _geom_bond_distance
    _geom_bond_site_symmetry_2
    _ccdc_geom_bond_type
    H56    C159      1.08743      .   S
    H1     C75       1.08936  1_554   S
    H71    C180      1.10006      .   S
    C158   C159      1.39647      .   S
    C158   C157      1.39735  1_655   S
    C158   H55       1.08945  1_554   S
    C180   H70       1.10028      .   S
    C180   C181      1.53342      .   S
    C180   O233      1.43909  1_554   S
    O203   C98       1.35645      .   S
    O203   C101      1.43910  1_554   S
    C159   C160      1.39580      .   S
    H44    C141      1.10002      .   S
    H40    C137      1.08769      .   S
    H54    C157      1.08950      .   S
    C157   C156      1.39492      .   S
    O227   C161      1.24729      .   S
    H61    C167      1.10028      .   S
    H13    C97       1.08771      .   S
    C160   C161      1.52802      .   S
    C160   N92       1.34160      .   S
    H39    C136      1.08895      .   S
    H43    C141      1.10022      .   S
    C141   C181      1.53496      .   S
    C141   O218      1.43936      .   S
    C161   O226      1.29275      .   S
    C98    C97       1.40145      .   S
    C98    C99       1.40358      .   S
    C181   C167      1.53468      .   S
    C181   C154      1.53495      .   S
    C156   N92       1.34103  1_455   S
    C156   C155      1.50819      .   S
    C137   C136      1.38936      .   S
    C137   C138      1.40139      .   S
    C167   O228      1.43924      .   S
    C167   H62       1.10011      .   S
    C97    C96       1.38935      .   S
    O228   C164      1.35648      .   S
    C136   N190      1.34920      .   S
    H59    C165      1.09061  1_455   S
    C164   C165      1.40355      .   S
    C164   C163      1.40144      .   S
    C165   C166      1.38067      .   S
    O216   C135      1.29262      .   S
    O217   C135      1.24739      .   S
    C163   H58       1.08768      .   S
    C163   C162      1.38941      .   S
    C166   H60       1.08771  1_655   S
    C166   N194      1.35723      .   S
    O225   C155      1.27986      .   S
    H50    C152      1.09069      .   S
    H14    C99       1.09150      .   S
    C162   N194      1.34913      .   S
    C162   H57       1.08892      .   S
    C155   O224      1.26031      .   S
    O223   C154      1.43941  1_545   S
    O223   C151      1.35649      .   S
    C99    C100      1.38059      .   S
    O218   C138      1.35627      .   S
    C135   C134      1.52803      .   S
    C138   C139      1.40367      .   S
    C154   H53       1.10007      .   S
    C154   H52       1.10014      .   S
    N190   C140      1.35737      .   S
    C96    H12       1.08890      .   S
    C96    N184      1.34920      .   S
    C152   C151      1.40359      .   S
    C152   C153      1.38066      .   S
    H29    C119      1.08736      .   S
    O212   C121      1.24734      .   S
    C151   C150      1.31444  1_655   S
    C100   N184      1.35733      .   S
    C100   H15       1.08813      .   S
    C139   C140      1.38066      .   S
    C139   H41       1.09068      .   S
    H51    C153      1.08814      .   S
    C140   H42       1.08822      .   S
    C134   N191      1.34159      .   S
    C134   C133      1.39579      .   S
    C153   N192      1.35713  1_655   S
    H28    C118      1.08966      .   S
    C119   C118      1.39643      .   S
    C119   C120      1.39579      .   S
    H64    C171      1.08965      .   S
    H38    C133      1.08740      .   S
    C121   C120      1.52805      .   S
    C121   O211      1.29149      .   S
    C150   H49       1.20170      .   S
    C150   C149      1.39484      .   S
    N191   C130      1.34135      .   S
    H63    C170      1.08862      .   S
    C118   C117      1.39747      .   S
    O220   C142      1.27977      .   S
    C133   C132      1.39643      .   S
    O219   C142      1.26042      .   S
    C171   C170      1.39745      .   S
    C171   C172      1.39649      .   S
    C120   N189      1.34164      .   S
    C170   C169      1.39496      .   S
    N192   C149      1.34920      .   S
    O214   C129      1.26049      .   S
    C142   C143      1.50821      .   S
    C149   H48       1.08846      .   S
    H65    C172      1.08747      .   S
    C172   C173      1.39582      .   S
    O230   C168      1.27982      .   S
    C130   C129      1.50817      .   S
    C130   C131      1.39503      .   S
    O201   C91       1.29279      .   S
    H18    C104      1.08859      .   S
    C169   C168      1.50805      .   S
    C169   N94       1.34141      .   S
    C117   H27       1.08860      .   S
    C117   C116      1.39498      .   S
    C132   C131      1.39738      .   S
    C132   H37       1.08986  1_565   S
    C129   O215      1.27979      .   S
    N189   C116      1.34141      .   S
    O205   C102      1.27851      .   S
    C168   O229      1.26036      .   S
    C173   N94       1.34078      .   S
    C173   C174      1.52793      .   S
    C91    O202      1.24721      .   S
    C91    C90       1.52808      .   S
    O199   C85       1.26041      .   S
    C131   H36       1.08869      .   S
    C116   C115      1.50818      .   S
    C143   N193      1.34143      .   S
    C143   C144      1.39504      .   S
    H19    C105      1.08985  1_565   S
    O232   C174      1.24636      .   S
    C104   C105      1.39737      .   S
    C104   C103      1.39471      .   S
    H45    C144      1.08865      .   S
    N185   C90       1.34158      .   S
    N185   C86       1.34142      .   S
    C174   O231      1.29389      .   S
    C90    C89       1.39581      .   S
    H30    C122      1.08894      .   S
    C85    C86       1.50800      .   S
    C85    O200      1.27982      .   S
    N193   C147      1.34148      .   S
    C102   C103      1.50820      .   S
    C102   O204      1.26159      .   S
    C105   C106      1.39588      .   S
    C144   C145      1.39739      .   S
    C86    C87       1.39506      .   S
    C103   N187      1.34173      .   S
    C89    H11       1.08654      .   S
    C89    C88       1.39646      .   S
    C122   N188      1.34922      .   S
    C122   C123      1.38947      .   S
    C115   O209      1.26040      .   S
    C115   O210      1.27978      .   S
    O221   C148      1.29257      .   S
    N188   C126      1.35714  1_655   S
    C87    C88       1.39679      .   S
    C87    H9        1.08863      .   S
    C147   C148      1.52805      .   S
    C147   C146      1.39587      .   S
    C88    H10       1.09027      .   S
    H24    C113      1.08802      .   S
    C106   H20       1.08750      .   S
    C106   C107      1.39622      .   S
    H31    C123      1.08745      .   S
    C145   C146      1.39643      .   S
    C145   H46       1.08887      .   S
    H23    C112      1.09069      .   S
    N187   C107      1.34161      .   S
    C123   C124      1.40144  1_655   S
    H69    C179      1.08813      .   S
    C148   O222      1.24739      .   S
    C146   H47       1.08742      .   S
    C126   H33       1.08814      .   S
    C126   C125      1.38065      .   S
    C107   C108      1.52793      .   S
    N93    C179      1.35734      .   S
    N93    C175      1.34919      .   S
    C113   C112      1.38073      .   S
    C113   N186      1.35738      .   S
    C112   C111      1.40366      .   S
    C179   C178      1.38059      .   S
    H34    C127      1.08992      .   S
    C124   C125      1.40356      .   S
    C124   O213      1.35648      .   S
    H66    C175      1.08891      .   S
    C125   H32       1.09070      .   S
    C175   C176      1.38935      .   S
    N186   C109      1.34919      .   S
    O95    C72       1.26032      .   S
    H35    C127      1.10493      .   S
    C127   O213      1.44102  1_545   S
    C127   C128      1.53848      .   S
    H8     C84       1.10007      .   S
    C111   O208      1.35632      .   S
    C111   C110      1.40141      .   S
    C108   O207      1.24720      .   S
    C108   O206      1.29232      .   S
    O208   C114      1.43928      .   S
    C178   H68       1.09073      .   S
    C178   C177      1.40357      .   S
    H3     C79       1.08896      .   S
    C72    O195      1.27990      .   S
    C72    C73       1.50820      .   S
    N182   C79       1.34916      .   S
    N182   C83       1.35727      .   S
    C79    C80       1.38940      .   S
    H6     C83       1.08773  1_655   S
    H4     C80       1.08767      .   S
    C83    C82       1.38067      .   S
    C80    C81       1.40148      .   S
    O196   C78       1.29267      .   S
    C82    C81       1.40356      .   S
    C82    H5        1.09060  1_455   S
    C81    O198      1.35648      .   S
    C109   C110      1.38946      .   S
    C109   H21       1.08895      .   S
    O198   C84       1.43923      .   S
    C176   C177      1.40145      .   S
    C176   H67       1.08771      .   S
    C84    C128      1.53454      .   S
    C84    H7        1.10029      .   S
    N183   C73       1.34111  1_455   S
    N183   C77       1.34162      .   S
    C110   H22       1.08768      .   S
    C73    C74       1.39490      .   S
    C128   C114      1.53453      .   S
    C128   C101      1.53429      .   S
    C177   O233      1.35643      .   S
    C78    C77       1.52806      .   S
    C78    O197      1.24730      .   S
    C114   H25       1.10021      .   S
    C114   H26       1.10002      .   S
    C77    C76       1.39582      .   S
    C74    H0        1.08847      .   S
    C74    C75       1.39736  1_655   S
    H16    C101      1.10026      .   S
    C76    C75       1.39644      .   S
    C76    H2        1.08742      .   S
    C101   H17       1.10005      .   S
