# CIF file generated by openbabel 2.4.90, see http://openbabel.sf.net
data_I
_chemical_name_common ''
_cell_length_a 17.675
_cell_length_b 17.661
_cell_length_c 17.684
_cell_angle_alpha 90.659
_cell_angle_beta 119.543
_cell_angle_gamma 119.714
_space_group_name_H-M_alt 'P 1'
_space_group_name_Hall 'P 1'
loop_
    _symmetry_equiv_pos_as_xyz
    x,y,z
loop_
    _atom_site_label
    _atom_site_type_symbol
    _atom_site_fract_x
    _atom_site_fract_y
    _atom_site_fract_z
    _atom_site_occupancy
    N0      N    0.32048   0.89791   0.37829   1.000
    N1      N    0.74965   0.87463   0.12445   1.000
    N2      N    0.17947   0.55801   0.57734   1.000
    N3      N    0.25021   0.12534   0.87554   1.000
    N4      N    0.48027   0.37841   0.55789   1.000
    N5      N    0.67956   0.10205   0.62168   1.000
    N6      N    0.01986   0.57775   0.89807   1.000
    N7      N    0.51976   0.62155   0.44209   1.000
    N8      N    0.98017   0.42221   0.10192   1.000
    N9      N    0.82056   0.44195   0.42264   1.000
    Zr10    Zr   0.18816   0.43655   0.46836   1.000
    O11     O    0.28290   0.48560   0.45668   1.000
    O12     O    0.06344   0.27924   0.37187   1.000
    Zr13    Zr   0.03166   0.46871   0.77980   1.000
    O14     O    0.09260   0.37237   0.80831   1.000
    O15     O    0.97097   0.45688   0.67357   1.000
    Zr16    Zr   0.96837   0.53124   0.22019   1.000
    O17     O    0.02907   0.54308   0.32641   1.000
    O18     O    0.90739   0.62759   0.19168   1.000
    Zr19    Zr   0.31214   0.78035   0.24843   1.000
    O20     O    0.21728   0.67383   0.20278   1.000
    O21     O    0.43657   0.80848   0.21567   1.000
    Zr22    Zr   0.68789   0.21961   0.75156   1.000
    O23     O    0.56342   0.19148   0.78432   1.000
    O24     O    0.78275   0.32613   0.79721   1.000
    Zr25    Zr   0.81187   0.56342   0.53162   1.000
    O26     O    0.93654   0.72072   0.62811   1.000
    O27     O    0.71713   0.51436   0.54330   1.000
    Zr28    Zr   0.46800   0.24795   0.43690   1.000
    O29     O    0.52881   0.20245   0.48592   1.000
    O30     O    0.40729   0.21558   0.27979   1.000
    Zr31    Zr   0.53203   0.75201   0.56302   1.000
    O32     O    0.59270   0.78438   0.72015   1.000
    O33     O    0.47122   0.79751   0.51403   1.000
    O34     O    0.30971   0.81808   0.28108   1.000
    O35     O    0.53714   0.71919   0.52811   1.000
    O36     O    0.69032   0.18188   0.71890   1.000
    O37     O    0.80955   0.52835   0.49153   1.000
    O38     O    0.96313   0.49111   0.18226   1.000
    O39     O    0.46289   0.28077   0.47182   1.000
    O40     O    0.03690   0.50884   0.81773   1.000
    O41     O    0.19048   0.47162   0.50845   1.000
loop_
    _geom_bond_atom_site_label_1
    _geom_bond_atom_site_label_2
    _geom_bond_distance
    _geom_bond_site_symmetry_2
    _ccdc_geom_bond_type
    Zr10   O11       1.58261      .   S
    N7     O11       3.80432      .   S
    Zr10   O12       2.36635      .   S
    N1     O12       6.08517  1_665   S
    Zr13   O14       2.36861      .   S
    N3     O14       6.09185      .   S
    Zr13   O15       1.58262  1_455   S
    N9     O15       3.80437      .   S
    Zr16   O17       1.58257  1_655   S
    N2     O17       3.80422      .   S
    Zr16   O18       2.36921      .   S
    N1     O18       6.09361      .   S
    Zr19   O20       1.58285      .   S
    N8     O20       3.80481  1_655   S
    Zr19   O21       2.36622      .   S
    N1     O21       6.08488      .   S
    Zr22   O23       2.36696      .   S
    N3     O23       6.08705      .   S
    Zr22   O24       1.58285      .   S
    N6     O24       3.80481  1_455   S
    Zr25   O26       2.36636      .   S
    N3     O26       6.08521  1_445   S
    Zr25   O27       1.58257      .   S
    N4     O27       3.80420      .   S
    Zr28   O29       1.58305      .   S
    N5     O29       3.80522      .   S
    Zr28   O30       2.36907      .   S
    N3     O30       6.09370  1_556   S
    Zr31   O32       2.36970      .   S
    N1     O32       6.09492  1_554   S
    Zr31   O33       1.58295      .   S
    N0     O33       3.80504      .   S
    Zr19   O34       0.90743      .   S
    N0     O34       2.08196      .   S
    Zr31   O35       0.90759      .   S
    N7     O35       2.08232      .   S
    Zr22   O36       0.90751      .   S
    N5     O36       2.08210      .   S
    Zr25   O37       0.90765      .   S
    N9     O37       2.08221      .   S
    Zr16   O38       0.90756      .   S
    N8     O38       2.08226      .   S
    Zr28   O39       0.90784      .   S
    N4     O39       2.08274      .   S
    Zr13   O40       0.90755      .   S
    N6     O40       2.08219      .   S
    Zr10   O41       0.90756      .   S
    N2     O41       2.08217      .   S
