# CIF file generated by openbabel 2.4.90, see http://openbabel.sf.net
data_I
_chemical_name_common ''
_cell_length_a 17.675
_cell_length_b 17.661
_cell_length_c 17.684
_cell_angle_alpha 90.659
_cell_angle_beta 119.543
_cell_angle_gamma 119.714
_space_group_name_H-M_alt 'P 1'
_space_group_name_Hall 'P 1'
loop_
    _symmetry_equiv_pos_as_xyz
    x,y,z
loop_
    _atom_site_label
    _atom_site_type_symbol
    _atom_site_fract_x
    _atom_site_fract_y
    _atom_site_fract_z
    _atom_site_occupancy
    N0      N    0.32048   0.89791   0.37829   1.000
    N1      N    0.74965   0.87463   0.12445   1.000
    N2      N    0.17947   0.55801   0.57734   1.000
    N3      N    0.25021   0.12534   0.87554   1.000
    N4      N    0.48027   0.37841   0.55789   1.000
    N5      N    0.67956   0.10205   0.62168   1.000
    N6      N    0.01986   0.57775   0.89807   1.000
    N7      N    0.51976   0.62155   0.44209   1.000
    N8      N    0.98017   0.42221   0.10192   1.000
    N9      N    0.82056   0.44195   0.42264   1.000
    Zr10    Zr   0.18816   0.43655   0.46836   1.000
    O11     O    0.19604   0.46603   0.51226   1.000
    O12     O    0.28290   0.48560   0.45668   1.000
    O13     O    0.18493   0.47720   0.50463   1.000
    O14     O    0.06344   0.27924   0.37187   1.000
    Zr15    Zr   0.03166   0.46871   0.77980   1.000
    O16     O    0.09260   0.37237   0.80831   1.000
    O17     O    0.97097   0.45688   0.67357   1.000
    O18     O    0.04630   0.51268   0.81597   1.000
    O19     O    0.02750   0.50500   0.81950   1.000
    Zr20    Zr   0.96837   0.53124   0.22019   1.000
    O21     O    0.95374   0.48728   0.18402   1.000
    O22     O    0.02907   0.54308   0.32641   1.000
    O23     O    0.97253   0.49495   0.18049   1.000
    O24     O    0.90739   0.62759   0.19168   1.000
    Zr25    Zr   0.31214   0.78035   0.24843   1.000
    O26     O    0.21728   0.67383   0.20278   1.000
    O27     O    0.43657   0.80848   0.21567   1.000
    O28     O    0.31527   0.81983   0.29222   1.000
    O29     O    0.30415   0.81633   0.26995   1.000
    Zr30    Zr   0.68789   0.21961   0.75156   1.000
    O31     O    0.68477   0.18013   0.70776   1.000
    O32     O    0.69588   0.18363   0.73003   1.000
    O33     O    0.56342   0.19148   0.78432   1.000
    O34     O    0.78275   0.32613   0.79721   1.000
    Zr35    Zr   0.81187   0.56342   0.53162   1.000
    O36     O    0.93654   0.72072   0.62811   1.000
    O37     O    0.80399   0.53393   0.48771   1.000
    O38     O    0.81510   0.52276   0.49535   1.000
    O39     O    0.71713   0.51436   0.54330   1.000
    Zr40    Zr   0.46800   0.24795   0.43690   1.000
    O41     O    0.52881   0.20245   0.48592   1.000
    O42     O    0.45348   0.26960   0.46625   1.000
    O43     O    0.40729   0.21558   0.27979   1.000
    O44     O    0.47231   0.29194   0.47740   1.000
    Zr45    Zr   0.53203   0.75201   0.56302   1.000
    O46     O    0.52772   0.70802   0.52254   1.000
    O47     O    0.54656   0.73036   0.53369   1.000
    O48     O    0.59270   0.78438   0.72015   1.000
    O49     O    0.47122   0.79751   0.51403   1.000
loop_
    _geom_bond_atom_site_label_1
    _geom_bond_atom_site_label_2
    _geom_bond_distance
    _geom_bond_site_symmetry_2
    _ccdc_geom_bond_type
    Zr10   O11       0.83979      .   S
    N2     O11       2.19315      .   S
    Zr10   O12       1.58261      .   S
    N7     O12       3.80432      .   S
    Zr10   O13       0.99819      .   S
    N2     O13       1.97871      .   S
    Zr10   O14       2.36635      .   S
    N1     O14       6.08517  1_665   S
    Zr15   O16       2.36861      .   S
    N3     O16       6.09185      .   S
    Zr15   O17       1.58262  1_455   S
    N9     O17       3.80437      .   S
    Zr15   O18       0.83979      .   S
    N6     O18       2.19316      .   S
    Zr15   O19       0.99818      .   S
    N6     O19       1.97874      .   S
    Zr20   O21       0.83979      .   S
    N8     O21       2.19324      .   S
    Zr20   O22       1.58257  1_655   S
    N2     O22       3.80422      .   S
    Zr20   O23       0.99820      .   S
    N8     O23       1.97879      .   S
    Zr20   O24       2.36921      .   S
    N1     O24       6.09361      .   S
    Zr25   O26       1.58285      .   S
    N8     O26       3.80481  1_655   S
    Zr25   O27       2.36622      .   S
    N1     O27       6.08488      .   S
    Zr25   O28       0.99805      .   S
    N0     O28       1.97850      .   S
    Zr25   O29       0.83968      .   S
    N0     O29       2.19293      .   S
    Zr30   O31       0.99811      .   S
    N5     O31       1.97867      .   S
    Zr30   O32       0.83977      .   S
    N5     O32       2.19305      .   S
    Zr30   O33       2.36696      .   S
    N3     O33       6.08705      .   S
    Zr30   O34       1.58285      .   S
    N6     O34       3.80481  1_455   S
    Zr35   O36       2.36636      .   S
    N3     O36       6.08521  1_445   S
    Zr35   O37       0.83997      .   S
    N9     O37       2.19313      .   S
    Zr35   O38       0.99822      .   S
    N9     O38       1.97881      .   S
    Zr35   O39       1.58257      .   S
    N4     O39       3.80420      .   S
    Zr40   O41       1.58305      .   S
    N5     O41       3.80522      .   S
    Zr40   O42       0.84002      .   S
    N4     O42       2.19373      .   S
    Zr40   O43       2.36907      .   S
    N3     O43       6.09370  1_556   S
    Zr40   O44       0.99851      .   S
    N4     O44       1.97925      .   S
    Zr45   O46       0.99833      .   S
    N7     O46       1.97876      .   S
    Zr45   O47       0.83970      .   S
    N7     O47       2.19338      .   S
    Zr45   O48       2.36970      .   S
    N1     O48       6.09492  1_554   S
    Zr45   O49       1.58295      .   S
    N0     O49       3.80504      .   S
