# CIF file generated by openbabel 2.4.90, see http://openbabel.sf.net
data_I
_chemical_name_common ''
_cell_length_a 13.396
_cell_length_b 15.744
_cell_length_c 23.744
_cell_angle_alpha 89.872
_cell_angle_beta 90.124
_cell_angle_gamma 101.064
_space_group_name_H-M_alt 'P 1'
_space_group_name_Hall 'P 1'
loop_
    _symmetry_equiv_pos_as_xyz
    x,y,z
loop_
    _atom_site_label
    _atom_site_type_symbol
    _atom_site_fract_x
    _atom_site_fract_y
    _atom_site_fract_z
    _atom_site_occupancy
    Cd0     Cd   0.86740   0.97069   0.46884   1.000
    Cd1     Cd   0.13353   0.52811   0.96840   1.000
    Cd2     Cd   0.63427   0.52841   0.96863   1.000
    Cd3     Cd   0.13338   0.02890   0.53020   1.000
    Cd4     Cd   0.63357   0.02903   0.53027   1.000
    Cd5     Cd   0.36795   0.47003   0.03030   1.000
    Cd6     Cd   0.86852   0.46983   0.03030   1.000
    Cd7     Cd   0.36785   0.97105   0.46937   1.000
