# CIF file generated by openbabel 2.4.90, see http://openbabel.sf.net
data_I
_chemical_name_common ''
_cell_length_a 13.396
_cell_length_b 15.744
_cell_length_c 23.744
_cell_angle_alpha 89.872
_cell_angle_beta 90.124
_cell_angle_gamma 101.064
_space_group_name_H-M_alt 'P 1'
_space_group_name_Hall 'P 1'
loop_
    _symmetry_equiv_pos_as_xyz
    x,y,z
loop_
    _atom_site_label
    _atom_site_type_symbol
    _atom_site_fract_x
    _atom_site_fract_y
    _atom_site_fract_z
    _atom_site_occupancy
    Zr0     Zr   0.36785   0.97105   0.46937   1.000
    Zr1     Zr   0.86740   0.97069   0.46884   1.000
    Zr2     Zr   0.13353   0.52811   0.96840   1.000
    Zr3     Zr   0.63427   0.52841   0.96863   1.000
    Zr4     Zr   0.13338   0.02890   0.53020   1.000
    Zr5     Zr   0.63357   0.02903   0.53027   1.000
    Zr6     Zr   0.36795   0.47003   0.03030   1.000
    Zr7     Zr   0.86852   0.46983   0.03030   1.000
    N8      N    0.03427   0.83248   0.22138   1.000
    O9      O    0.17262   0.88224   0.32818   1.000
    O10     O    0.86395   0.69081   0.11277   1.000
    N11     N    0.46730   0.66549   0.72059   1.000
    O12     O    0.63808   0.80772   0.61267   1.000
    O13     O    0.32892   0.61624   0.82729   1.000
    N14     N    0.03432   0.33382   0.27866   1.000
    O15     O    0.86329   0.19184   0.38660   1.000
    O16     O    0.17272   0.38254   0.17176   1.000
    N17     N    0.96715   0.66505   0.72035   1.000
    O18     O    0.13810   0.80762   0.61269   1.000
    O19     O    0.82901   0.61610   0.82718   1.000
    N20     N    0.96744   0.16545   0.77845   1.000
    O21     O    0.82898   0.11660   0.67160   1.000
    O22     O    0.13844   0.30741   0.88635   1.000
    N23     N    0.53231   0.83259   0.22122   1.000
    O24     O    0.67125   0.88224   0.32786   1.000
    O25     O    0.36226   0.69068   0.11266   1.000
    N26     N    0.53479   0.33394   0.27880   1.000
    O27     O    0.67322   0.38258   0.17186   1.000
    O28     O    0.36352   0.19190   0.38669   1.000
    N29     N    0.46731   0.16542   0.77850   1.000
    O30     O    0.32882   0.11653   0.67163   1.000
    O31     O    0.63851   0.30734   0.88641   1.000
    O32     O    0.44369   0.67541   0.13641   1.000
    O33     O    0.05684   0.32260   0.86282   1.000
    O34     O    0.55695   0.32267   0.86294   1.000
    O35     O    0.05651   0.82269   0.63594   1.000
    O36     O    0.55667   0.82299   0.63608   1.000
    O37     O    0.94544   0.67536   0.13646   1.000
    O38     O    0.44509   0.17670   0.36341   1.000
    O39     O    0.94454   0.17643   0.36303   1.000
loop_
    _geom_bond_atom_site_label_1
    _geom_bond_atom_site_label_2
    _geom_bond_distance
    _geom_bond_site_symmetry_2
    _ccdc_geom_bond_type
    N8     O9        3.14811      .   S
    Zr0    O9        4.31421      .   S
    N8     O10       3.85711  1_455   S
    Zr3    O10       4.96915  1_556   S
    N11    O12       3.85338      .   S
    Zr1    O12       4.96633      .   S
    N11    O13       3.14900      .   S
    Zr2    O13       4.31560      .   S
    N14    O15       3.85332  1_455   S
    Zr5    O15       4.96557      .   S
    N14    O16       3.15194      .   S
    Zr6    O16       4.31892      .   S
    N17    O18       3.85273  1_655   S
    Zr0    O18       4.96387      .   S
    N17    O19       3.14913      .   S
    Zr3    O19       4.31586      .   S
    N20    O21       3.14788      .   S
    Zr5    O21       4.31413      .   S
    N20    O22       3.85253  1_655   S
    Zr6    O22       4.96611  1_554   S
    N23    O24       3.14900      .   S
    Zr1    O24       4.31591      .   S
    N23    O25       3.85645      .   S
    Zr2    O25       4.96550  1_556   S
    N26    O27       3.15269      .   S
    Zr7    O27       4.32050      .   S
    N26    O28       3.85459      .   S
    Zr4    O28       4.96702      .   S
    N29    O30       3.14872      .   S
    Zr4    O30       4.31625      .   S
    N29    O31       3.85360      .   S
    Zr7    O31       4.96777  1_554   S
    Zr6    O32       4.07423      .   S
    N23    O32       3.23620      .   S
    Zr2    O33       4.06914      .   S
    N20    O33       3.23175  1_655   S
    Zr3    O34       4.07435      .   S
    N29    O34       3.23435      .   S
    Zr4    O35       4.07369  1_545   S
    N17    O35       3.23384  1_655   S
    Zr5    O36       4.07289  1_545   S
    N11    O36       3.23384      .   S
    Zr7    O37       4.07817      .   S
    N8     O37       3.23782  1_455   S
    Zr0    O38       4.07103  1_565   S
    N26    O38       3.23338      .   S
    Zr1    O39       4.06957  1_565   S
    N14    O39       3.23178  1_455   S
