# CIF file generated by openbabel 2.4.90, see http://openbabel.sf.net
data_I
_chemical_name_common ''
_cell_length_a 13.396
_cell_length_b 15.744
_cell_length_c 23.744
_cell_angle_alpha 89.872
_cell_angle_beta 90.124
_cell_angle_gamma 101.064
_space_group_name_H-M_alt 'P 1'
_space_group_name_Hall 'P 1'
loop_
    _symmetry_equiv_pos_as_xyz
    x,y,z
loop_
    _atom_site_label
    _atom_site_type_symbol
    _atom_site_fract_x
    _atom_site_fract_y
    _atom_site_fract_z
    _atom_site_occupancy
    Zr0     Zr   0.36785   0.97105   0.46937   1.000
    Zr1     Zr   0.86740   0.97069   0.46884   1.000
    Zr2     Zr   0.13353   0.52811   0.96840   1.000
    Zr3     Zr   0.63427   0.52841   0.96863   1.000
    Zr4     Zr   0.13338   0.02890   0.53020   1.000
    Zr5     Zr   0.63357   0.02903   0.53027   1.000
    Zr6     Zr   0.36795   0.47003   0.03030   1.000
    Zr7     Zr   0.86852   0.46983   0.03030   1.000
    N8      N    0.03427   0.83248   0.22138   1.000
    O9      O    0.17262   0.88224   0.32818   1.000
    O10     O    0.86395   0.69081   0.11277   1.000
    O11     O    0.92252   0.67617   0.12819   1.000
    O12     O    0.96837   0.67455   0.14472   1.000
    N13     N    0.46730   0.66549   0.72059   1.000
    O14     O    0.63808   0.80772   0.61267   1.000
    O15     O    0.57962   0.82231   0.62803   1.000
    O16     O    0.53373   0.82366   0.64413   1.000
    O17     O    0.32892   0.61624   0.82729   1.000
    N18     N    0.03432   0.33382   0.27866   1.000
    O19     O    0.86329   0.19184   0.38660   1.000
    O20     O    0.92175   0.17726   0.37124   1.000
    O21     O    0.17272   0.38254   0.17176   1.000
    O22     O    0.96732   0.17560   0.35483   1.000
    N23     N    0.96715   0.66505   0.72035   1.000
    O24     O    0.13810   0.80762   0.61269   1.000
    O25     O    0.07948   0.82208   0.62790   1.000
    O26     O    0.82901   0.61610   0.82718   1.000
    O27     O    0.03353   0.82330   0.64397   1.000
    N28     N    0.96744   0.16545   0.77845   1.000
    O29     O    0.82898   0.11660   0.67160   1.000
    O30     O    0.13844   0.30741   0.88635   1.000
    O31     O    0.07984   0.32193   0.87087   1.000
    O32     O    0.03384   0.32327   0.85477   1.000
    N33     N    0.53231   0.83259   0.22122   1.000
    O34     O    0.46651   0.67467   0.14468   1.000
    O35     O    0.67125   0.88224   0.32786   1.000
    O36     O    0.36226   0.69068   0.11266   1.000
    O37     O    0.42086   0.67616   0.12814   1.000
    N38     N    0.53479   0.33394   0.27880   1.000
    O39     O    0.67322   0.38258   0.17186   1.000
    O40     O    0.36352   0.19190   0.38669   1.000
    O41     O    0.42214   0.17744   0.37148   1.000
    O42     O    0.46804   0.17597   0.35534   1.000
    N43     N    0.46731   0.16542   0.77850   1.000
    O44     O    0.53394   0.32335   0.85489   1.000
    O45     O    0.32882   0.11653   0.67163   1.000
    O46     O    0.63851   0.30734   0.88641   1.000
    O47     O    0.57995   0.32199   0.87099   1.000
    N48     N    0.47358   0.09687   0.53820   1.000
    O49     O    0.51358   0.07991   0.53622   1.000
    N50     N    0.02830   0.40176   0.03747   1.000
    O51     O    0.98835   0.41878   0.03568   1.000
    N52     N    0.02777   0.90329   0.46122   1.000
    O53     O    0.98768   0.92014   0.46312   1.000
    N54     N    0.52778   0.90313   0.46154   1.000
    O55     O    0.48780   0.92011   0.46350   1.000
    N56     N    0.97369   0.59593   0.96108   1.000
    O57     O    0.01365   0.57897   0.96291   1.000
    N58     N    0.97337   0.09667   0.53758   1.000
    O59     O    0.01337   0.07973   0.53573   1.000
    N60     N    0.47418   0.59639   0.96166   1.000
    O61     O    0.51421   0.57939   0.96340   1.000
    N62     N    0.52873   0.40307   0.03803   1.000
    O63     O    0.48853   0.41981   0.03610   1.000
loop_
    _geom_bond_atom_site_label_1
    _geom_bond_atom_site_label_2
    _geom_bond_distance
    _geom_bond_site_symmetry_2
    _ccdc_geom_bond_type
    N8     O9        3.14811      .   S
    Zr0    O9        4.31421      .   S
    N8     O10       3.85711  1_455   S
    Zr3    O10       4.96915  1_556   S
    N8     O11       3.43360  1_455   S
    Zr7    O11       3.95017      .   S
    N8     O12       3.07341  1_455   S
    Zr7    O12       4.23410      .   S
    N13    O14       3.85338      .   S
    Zr1    O14       4.96633      .   S
    N13    O15       3.42852      .   S
    Zr5    O15       3.94632  1_545   S
    N13    O16       3.07018      .   S
    Zr5    O16       4.22715  1_545   S
    N13    O17       3.14900      .   S
    Zr2    O17       4.31560      .   S
    N18    O19       3.85332  1_455   S
    Zr5    O19       4.96557      .   S
    N18    O20       3.42716  1_455   S
    Zr1    O20       3.94227  1_565   S
    N18    O21       3.15194      .   S
    Zr6    O21       4.31892      .   S
    N18    O22       3.06750  1_455   S
    Zr1    O22       4.22462  1_565   S
    N23    O24       3.85273  1_655   S
    Zr0    O24       4.96387      .   S
    N23    O25       3.42891  1_655   S
    Zr4    O25       3.94664  1_545   S
    N23    O26       3.14913      .   S
    Zr3    O26       4.31586      .   S
    N23    O27       3.06975  1_655   S
    Zr4    O27       4.22837  1_545   S
    N28    O29       3.14788      .   S
    Zr5    O29       4.31413      .   S
    N28    O30       3.85253  1_655   S
    Zr6    O30       4.96611  1_554   S
    N28    O31       3.42625  1_655   S
    Zr2    O31       3.94299      .   S
    N28    O32       3.06829  1_655   S
    Zr2    O32       4.22301      .   S
    N33    O34       3.07152      .   S
    Zr6    O34       4.22967      .   S
    N33    O35       3.14900      .   S
    Zr1    O35       4.31591      .   S
    N33    O36       3.85645      .   S
    Zr2    O36       4.96550  1_556   S
    N33    O37       3.43196      .   S
    Zr6    O37       3.94654      .   S
    N38    O39       3.15269      .   S
    Zr7    O39       4.32050      .   S
    N38    O40       3.85459      .   S
    Zr4    O40       4.96702      .   S
    N38    O41       3.42844      .   S
    Zr0    O41       3.94420  1_565   S
    N38    O42       3.06941      .   S
    Zr0    O42       4.22561  1_565   S
    N43    O44       3.07072      .   S
    Zr3    O44       4.22864      .   S
    N43    O45       3.14872      .   S
    Zr4    O45       4.31625      .   S
    N43    O46       3.85360      .   S
    Zr7    O46       4.96777  1_554   S
    N43    O47       3.42899      .   S
    Zr3    O47       3.94772      .   S
    N48    O49       0.64472      .   S
    Zr5    O49       1.93416      .   S
    N50    O51       0.64405  1_455   S
    Zr7    O51       1.93214      .   S
    N52    O53       0.64476  1_455   S
    Zr1    O53       1.93429      .   S
    N54    O55       0.64467      .   S
    Zr0    O55       1.93400      .   S
    N56    O57       0.64371  1_655   S
    Zr2    O57       1.93114      .   S
    N58    O59       0.64442  1_655   S
    Zr4    O59       1.93325      .   S
    N60    O61       0.64472      .   S
    Zr3    O61       1.93415      .   S
    N62    O63       0.64480      .   S
    Zr6    O63       1.93441      .   S
