# CIF file generated by openbabel 2.4.90, see http://openbabel.sf.net
data_I
_chemical_name_common ''
_cell_length_a 13.728
_cell_length_b 14.03
_cell_length_c 16.134
_cell_angle_alpha 89.995
_cell_angle_beta 89.988
_cell_angle_gamma 90.083
_space_group_name_H-M_alt 'P 1'
_space_group_name_Hall 'P 1'
loop_
    _symmetry_equiv_pos_as_xyz
    x,y,z
loop_
    _atom_site_label
    _atom_site_type_symbol
    _atom_site_fract_x
    _atom_site_fract_y
    _atom_site_fract_z
    _atom_site_occupancy
    O0      O    0.10758   0.30685   0.49707   1.000
    O1      O    0.60756   0.30685   0.49707   1.000
    O2      O    0.14243   0.69306   0.99707   1.000
    O3      O    0.64241   0.69306   0.99707   1.000
    O4      O    0.39254   0.80683   0.99949   1.000
    O5      O    0.89253   0.80682   0.99950   1.000
    O6      O    0.35746   0.19307   0.49951   1.000
    O7      O    0.85745   0.19306   0.49951   1.000
