# CIF file generated by openbabel 2.4.90, see http://openbabel.sf.net
data_I
_chemical_name_common ''
_cell_length_a 13.728
_cell_length_b 14.03
_cell_length_c 16.134
_cell_angle_alpha 89.995
_cell_angle_beta 89.988
_cell_angle_gamma 90.083
_space_group_name_H-M_alt 'P 1'
_space_group_name_Hall 'P 1'
loop_
    _symmetry_equiv_pos_as_xyz
    x,y,z
loop_
    _atom_site_label
    _atom_site_type_symbol
    _atom_site_fract_x
    _atom_site_fract_y
    _atom_site_fract_z
    _atom_site_occupancy
    V0      V    0.71815   0.26452   0.49811   1.000
    V1      V    0.03184   0.73539   0.99812   1.000
    V2      V    0.53183   0.73540   0.99811   1.000
    V3      V    0.28183   0.76454   0.99840   1.000
    V4      V    0.78181   0.76453   0.99845   1.000
    V5      V    0.46817   0.23539   0.49846   1.000
    V6      V    0.96816   0.23538   0.49846   1.000
    V7      V    0.21816   0.26453   0.49810   1.000
