# CIF file generated by openbabel 2.4.90, see http://openbabel.sf.net
data_I
_chemical_name_common ''
_cell_length_a 13.728
_cell_length_b 14.03
_cell_length_c 16.134
_cell_angle_alpha 89.995
_cell_angle_beta 89.988
_cell_angle_gamma 90.083
_space_group_name_H-M_alt 'P 1'
_space_group_name_Hall 'P 1'
loop_
    _symmetry_equiv_pos_as_xyz
    x,y,z
loop_
    _atom_site_label
    _atom_site_type_symbol
    _atom_site_fract_x
    _atom_site_fract_y
    _atom_site_fract_z
    _atom_site_occupancy
    Zr0     Zr   0.21816   0.26453   0.49810   1.000
    Zr1     Zr   0.71815   0.26452   0.49811   1.000
    Zr2     Zr   0.03184   0.73539   0.99812   1.000
    Zr3     Zr   0.53183   0.73540   0.99811   1.000
    Zr4     Zr   0.28183   0.76454   0.99840   1.000
    Zr5     Zr   0.78181   0.76453   0.99845   1.000
    Zr6     Zr   0.46817   0.23539   0.49846   1.000
    Zr7     Zr   0.96816   0.23538   0.49846   1.000
    Zr8     Zr   0.10758   0.30685   0.49707   1.000
    Zr9     Zr   0.60756   0.30685   0.49707   1.000
    Zr10    Zr   0.14243   0.69306   0.99707   1.000
    Zr11    Zr   0.64241   0.69306   0.99707   1.000
    Zr12    Zr   0.39254   0.80683   0.99949   1.000
    Zr13    Zr   0.89253   0.80682   0.99950   1.000
    Zr14    Zr   0.35746   0.19307   0.49951   1.000
    Zr15    Zr   0.85745   0.19306   0.49951   1.000
    O16     O    0.66285   0.28568   0.49759   1.000
    O17     O    0.53787   0.27112   0.49777   1.000
    O18     O    0.16287   0.28569   0.49758   1.000
    O19     O    0.03787   0.27112   0.49777   1.000
    O20     O    0.28781   0.22880   0.49880   1.000
    O21     O    0.78780   0.22879   0.49881   1.000
    O22     O    0.41282   0.21423   0.49899   1.000
    O23     O    0.91281   0.21422   0.49899   1.000
    O24     O    0.58712   0.71423   0.99759   1.000
    O25     O    0.71211   0.72879   0.99776   1.000
    O26     O    0.08714   0.71422   0.99760   1.000
    O27     O    0.21213   0.72880   0.99774   1.000
    O28     O    0.46219   0.77111   0.99880   1.000
    O29     O    0.96219   0.77110   0.99881   1.000
    O30     O    0.33718   0.78568   0.99894   1.000
    O31     O    0.83717   0.78567   0.99897   1.000
    N32     N    0.61717   0.07094   0.68138   1.000
    O33     O    0.56146   0.09920   0.64657   1.000
    O34     O    0.66515   0.11043   0.64679   1.000
    N35     N    0.86740   0.43400   0.67749   1.000
    O36     O    0.81168   0.40501   0.64311   1.000
    O37     O    0.91537   0.39383   0.64357   1.000
    N38     N    0.13268   0.93398   0.81904   1.000
    O39     O    0.08473   0.89381   0.85301   1.000
    O40     O    0.18842   0.90501   0.85340   1.000
    N41     N    0.38257   0.56594   0.17751   1.000
    O42     O    0.43829   0.59494   0.14313   1.000
    O43     O    0.33460   0.60611   0.14358   1.000
    N44     N    0.88257   0.56593   0.17752   1.000
    O45     O    0.93828   0.59493   0.14313   1.000
    O46     O    0.83459   0.60610   0.14359   1.000
    N47     N    0.13283   0.92902   0.18135   1.000
    O48     O    0.08484   0.88952   0.14678   1.000
    O49     O    0.18852   0.90075   0.14654   1.000
    N50     N    0.63281   0.92899   0.18136   1.000
    O51     O    0.58483   0.88950   0.14679   1.000
    O52     O    0.68851   0.90072   0.14656   1.000
    N53     N    0.38280   0.57094   0.81520   1.000
    O54     O    0.43848   0.59923   0.85001   1.000
    O55     O    0.33479   0.61041   0.84976   1.000
    C56     C    0.61732   0.06591   0.31906   1.000
    O57     O    0.56158   0.09490   0.35342   1.000
    O58     O    0.66528   0.10608   0.35302   1.000
    O59     O    0.62510   0.99675   0.25075   1.000
    C60     C    0.36719   0.42900   0.31521   1.000
    O61     O    0.31152   0.40070   0.35002   1.000
    O62     O    0.41521   0.38952   0.34978   1.000
    O63     O    0.37484   0.49678   0.24583   1.000
    C64     C    0.86718   0.42899   0.31521   1.000
    O65     O    0.81151   0.40069   0.35002   1.000
    O66     O    0.91520   0.38952   0.34978   1.000
    O67     O    0.87483   0.49677   0.24584   1.000
    C68     C    0.11733   0.06594   0.31905   1.000
    O69     O    0.06160   0.09492   0.35342   1.000
    O70     O    0.16529   0.10611   0.35300   1.000
    O71     O    0.12511   0.99679   0.25073   1.000
    C72     C    0.63267   0.93402   0.81907   1.000
    O73     O    0.58472   0.89384   0.85303   1.000
    O74     O    0.68841   0.90503   0.85343   1.000
    O75     O    0.62489   0.00318   0.75076   1.000
    C76     C    0.88280   0.57094   0.81519   1.000
    O77     O    0.93847   0.59923   0.85001   1.000
    O78     O    0.83478   0.61042   0.84976   1.000
    O79     O    0.87514   0.50317   0.74580   1.000
    C80     C    0.36740   0.43400   0.67751   1.000
    O81     O    0.41538   0.39383   0.64358   1.000
    O82     O    0.31169   0.40500   0.64312   1.000
    O83     O    0.37514   0.50317   0.74582   1.000
    C84     C    0.11718   0.07090   0.68135   1.000
    O85     O    0.16516   0.11040   0.64677   1.000
    O86     O    0.06147   0.09917   0.64655   1.000
    O87     O    0.12490   0.00313   0.75072   1.000
loop_
    _geom_bond_atom_site_label_1
    _geom_bond_atom_site_label_2
    _geom_bond_distance
    _geom_bond_site_symmetry_2
    _ccdc_geom_bond_type
    Zr9    O16       0.81552      .   S
    Zr1    O16       0.81552      .   S
    Zr9    O17       1.07958      .   S
    Zr6    O17       1.07958      .   S
    Zr8    O18       0.81551      .   S
    Zr0    O18       0.81551      .   S
    Zr8    O19       1.07976      .   S
    Zr7    O19       1.07976  1_655   S
    Zr0    O20       1.08029      .   S
    Zr14   O20       1.08029      .   S
    Zr1    O21       1.08034      .   S
    Zr15   O21       1.08034      .   S
    Zr6    O22       0.81545      .   S
    Zr14   O22       0.81545      .   S
    Zr7    O23       0.81545      .   S
    Zr15   O23       0.81545      .   S
    Zr11   O24       0.81553      .   S
    Zr3    O24       0.81553      .   S
    Zr11   O25       1.07967      .   S
    Zr5    O25       1.07967      .   S
    Zr10   O26       0.81552      .   S
    Zr2    O26       0.81552      .   S
    Zr10   O27       1.07969      .   S
    Zr4    O27       1.07969      .   S
    Zr3    O28       1.08015      .   S
    Zr12   O28       1.08015      .   S
    Zr2    O29       1.08026  1_455   S
    Zr13   O29       1.08026      .   S
    Zr4    O30       0.81544      .   S
    Zr12   O30       0.81544      .   S
    Zr5    O31       0.81543      .   S
    Zr13   O31       0.81543      .   S
    N32    O33       1.02874      .   S
    Zr6    O33       3.31802      .   S
    N32    O34       1.02516      .   S
    Zr1    O34       3.30931      .   S
    N35    O36       1.02838      .   S
    Zr1    O36       3.31682      .   S
    N35    O37       1.02565      .   S
    Zr7    O37       3.30955      .   S
    N38    O39       1.02470      .   S
    Zr2    O39       3.30792      .   S
    N38    O40       1.02908      .   S
    Zr4    O40       3.31798      .   S
    N41    O42       1.02815      .   S
    Zr3    O42       3.31624  1_556   S
    N41    O43       1.02584      .   S
    Zr4    O43       3.31002  1_556   S
    N44    O45       1.02821      .   S
    Zr2    O45       3.31629  1_456   S
    N44    O46       1.02580      .   S
    Zr5    O46       3.30964  1_556   S
    N47    O48       1.02533      .   S
    Zr2    O48       3.30983  1_556   S
    N47    O49       1.02868      .   S
    Zr4    O49       3.31835  1_556   S
    N50    O51       1.02533      .   S
    Zr3    O51       3.30983  1_556   S
    N50    O52       1.02862      .   S
    Zr5    O52       3.31788  1_556   S
    N53    O54       1.02789      .   S
    Zr3    O54       3.31607      .   S
    N53    O55       1.02620      .   S
    Zr4    O55       3.31068      .   S
    C56    O57       1.02899      .   S
    Zr6    O57       3.31857      .   S
    C56    O58       1.02485      .   S
    Zr1    O58       3.30832      .   S
    C56    O59       1.47242  1_545   S
    N50    O59       1.47260      .   S
    C60    O61       1.02764      .   S
    Zr0    O61       3.31530      .   S
    C60    O62       1.02638      .   S
    Zr6    O62       3.31121      .   S
    C60    O63       1.47230      .   S
    N41    O63       1.47220      .   S
    C64    O65       1.02766      .   S
    Zr1    O65       3.31536      .   S
    C64    O66       1.02636      .   S
    Zr7    O66       3.31117      .   S
    C64    O67       1.47230      .   S
    N44    O67       1.47215      .   S
    C68    O69       1.02909      .   S
    Zr7    O69       3.31842  1_655   S
    C68    O70       1.02483      .   S
    Zr0    O70       3.30820      .   S
    C68    O71       1.47243  1_545   S
    N47    O71       1.47267      .   S
    C72    O73       1.02463      .   S
    Zr3    O73       3.30782      .   S
    C72    O74       1.02917      .   S
    Zr5    O74       3.31843      .   S
    C72    O75       1.47235  1_565   S
    N32    O75       1.47252      .   S
    C76    O77       1.02793      .   S
    Zr2    O77       3.31631  1_455   S
    C76    O78       1.02629      .   S
    Zr5    O78       3.31120      .   S
    C76    O79       1.47252      .   S
    N35    O79       1.47225      .   S
    C80    O81       1.02566      .   S
    Zr6    O81       3.30961      .   S
    C80    O82       1.02840      .   S
    Zr0    O82       3.31694      .   S
    C80    O83       1.47230      .   S
    N53    O83       1.47240      .   S
    C84    O85       1.02522      .   S
    Zr0    O85       3.30944      .   S
    C84    O86       1.02874      .   S
    Zr7    O86       3.31805  1_655   S
    C84    O87       1.47253      .   S
    N38    O87       1.47231  1_565   S
