# CIF file generated by openbabel 2.4.90, see http://openbabel.sf.net
data_I
_chemical_name_common ''
_cell_length_a 13.728
_cell_length_b 14.03
_cell_length_c 16.134
_cell_angle_alpha 89.995
_cell_angle_beta 89.988
_cell_angle_gamma 90.083
_space_group_name_H-M_alt 'P 1'
_space_group_name_Hall 'P 1'
loop_
    _symmetry_equiv_pos_as_xyz
    x,y,z
loop_
    _atom_site_label
    _atom_site_type_symbol
    _atom_site_fract_x
    _atom_site_fract_y
    _atom_site_fract_z
    _atom_site_occupancy
    Zr0     Zr   0.21816   0.26453   0.49810   1.000
    Zr1     Zr   0.71815   0.26452   0.49811   1.000
    Zr2     Zr   0.03184   0.73539   0.99812   1.000
    Zr3     Zr   0.53183   0.73540   0.99811   1.000
    Zr4     Zr   0.28183   0.76454   0.99840   1.000
    Zr5     Zr   0.78181   0.76453   0.99845   1.000
    Zr6     Zr   0.46817   0.23539   0.49846   1.000
    Zr7     Zr   0.96816   0.23538   0.49846   1.000
    Zr8     Zr   0.10758   0.30685   0.49707   1.000
    Zr9     Zr   0.60756   0.30685   0.49707   1.000
    Zr10    Zr   0.14243   0.69306   0.99707   1.000
    Zr11    Zr   0.64241   0.69306   0.99707   1.000
    Zr12    Zr   0.39254   0.80683   0.99949   1.000
    Zr13    Zr   0.89253   0.80682   0.99950   1.000
    Zr14    Zr   0.35746   0.19307   0.49951   1.000
    Zr15    Zr   0.85745   0.19306   0.49951   1.000
    O16     O    0.66285   0.28568   0.49759   1.000
    O17     O    0.53787   0.27112   0.49777   1.000
    O18     O    0.16287   0.28569   0.49758   1.000
    O19     O    0.03787   0.27112   0.49777   1.000
    O20     O    0.28781   0.22880   0.49880   1.000
    O21     O    0.78780   0.22879   0.49881   1.000
    O22     O    0.41282   0.21423   0.49899   1.000
    O23     O    0.91281   0.21422   0.49899   1.000
    O24     O    0.58712   0.71423   0.99759   1.000
    O25     O    0.71211   0.72879   0.99776   1.000
    O26     O    0.08714   0.71422   0.99760   1.000
    O27     O    0.21213   0.72880   0.99774   1.000
    O28     O    0.46219   0.77111   0.99880   1.000
    O29     O    0.96219   0.77110   0.99881   1.000
    O30     O    0.33718   0.78568   0.99894   1.000
    O31     O    0.83717   0.78567   0.99897   1.000
    N32     N    0.62489   0.00318   0.75076   1.000
    O33     O    0.56146   0.09920   0.64657   1.000
    O34     O    0.58472   0.89384   0.85303   1.000
    O35     O    0.66515   0.11043   0.64679   1.000
    O36     O    0.68841   0.90503   0.85343   1.000
    N37     N    0.87514   0.50317   0.74580   1.000
    O38     O    0.81168   0.40501   0.64311   1.000
    O39     O    0.93847   0.59923   0.85001   1.000
    O40     O    0.91537   0.39383   0.64357   1.000
    O41     O    0.83478   0.61042   0.84976   1.000
    N42     N    0.12490   0.00313   0.75072   1.000
    O43     O    0.08473   0.89381   0.85301   1.000
    O44     O    0.16516   0.11040   0.64677   1.000
    O45     O    0.18842   0.90501   0.85340   1.000
    O46     O    0.06147   0.09917   0.64655   1.000
    N47     N    0.37484   0.49678   0.24583   1.000
    O48     O    0.43829   0.59494   0.14313   1.000
    O49     O    0.31152   0.40070   0.35002   1.000
    O50     O    0.33460   0.60611   0.14358   1.000
    O51     O    0.41521   0.38952   0.34978   1.000
    N52     N    0.87483   0.49677   0.24584   1.000
    O53     O    0.93828   0.59493   0.14313   1.000
    O54     O    0.81151   0.40069   0.35002   1.000
    O55     O    0.83459   0.60610   0.14359   1.000
    O56     O    0.91520   0.38952   0.34978   1.000
    N57     N    0.12511   0.99679   0.25073   1.000
    O58     O    0.08484   0.88952   0.14678   1.000
    O59     O    0.06160   0.09492   0.35342   1.000
    O60     O    0.18852   0.90075   0.14654   1.000
    O61     O    0.16529   0.10611   0.35300   1.000
    N62     N    0.62510   0.99675   0.25075   1.000
    O63     O    0.58483   0.88950   0.14679   1.000
    O64     O    0.56158   0.09490   0.35342   1.000
    O65     O    0.68851   0.90072   0.14656   1.000
    O66     O    0.66528   0.10608   0.35302   1.000
    N67     N    0.37514   0.50317   0.74582   1.000
    O68     O    0.43848   0.59923   0.85001   1.000
    O69     O    0.41538   0.39383   0.64358   1.000
    O70     O    0.33479   0.61041   0.84976   1.000
    O71     O    0.31169   0.40500   0.64312   1.000
loop_
    _geom_bond_atom_site_label_1
    _geom_bond_atom_site_label_2
    _geom_bond_distance
    _geom_bond_site_symmetry_2
    _ccdc_geom_bond_type
    Zr9    O16       0.81552      .   S
    Zr1    O16       0.81552      .   S
    Zr9    O17       1.07958      .   S
    Zr6    O17       1.07958      .   S
    Zr8    O18       0.81551      .   S
    Zr0    O18       0.81551      .   S
    Zr8    O19       1.07976      .   S
    Zr7    O19       1.07976  1_655   S
    Zr0    O20       1.08029      .   S
    Zr14   O20       1.08029      .   S
    Zr1    O21       1.08034      .   S
    Zr15   O21       1.08034      .   S
    Zr6    O22       0.81545      .   S
    Zr14   O22       0.81545      .   S
    Zr7    O23       0.81545      .   S
    Zr15   O23       0.81545      .   S
    Zr11   O24       0.81553      .   S
    Zr3    O24       0.81553      .   S
    Zr11   O25       1.07967      .   S
    Zr5    O25       1.07967      .   S
    Zr10   O26       0.81552      .   S
    Zr2    O26       0.81552      .   S
    Zr10   O27       1.07969      .   S
    Zr4    O27       1.07969      .   S
    Zr3    O28       1.08015      .   S
    Zr12   O28       1.08015      .   S
    Zr2    O29       1.08026  1_455   S
    Zr13   O29       1.08026      .   S
    Zr4    O30       0.81544      .   S
    Zr12   O30       0.81544      .   S
    Zr5    O31       0.81543      .   S
    Zr13   O31       0.81543      .   S
    N32    O33       2.32428      .   S
    Zr6    O33       3.31802      .   S
    N32    O34       2.31866  1_545   S
    Zr3    O34       3.30782      .   S
    N32    O35       2.31954      .   S
    Zr1    O35       3.30931      .   S
    N32    O36       2.32469  1_545   S
    Zr5    O36       3.31843      .   S
    N37    O38       2.32340      .   S
    Zr1    O38       3.31682      .   S
    N37    O39       2.32307      .   S
    Zr2    O39       3.31631  1_455   S
    N37    O40       2.31978      .   S
    Zr7    O40       3.30955      .   S
    N37    O41       2.32089      .   S
    Zr5    O41       3.31120      .   S
    N42    O43       2.31870  1_545   S
    Zr2    O43       3.30792      .   S
    N42    O44       2.31960      .   S
    Zr0    O44       3.30944      .   S
    N42    O45       2.32452  1_545   S
    Zr4    O45       3.31798      .   S
    N42    O46       2.32426      .   S
    Zr7    O46       3.31805  1_655   S
    N47    O48       2.32305      .   S
    Zr3    O48       3.31624  1_556   S
    N47    O49       2.32249      .   S
    Zr0    O49       3.31530      .   S
    N47    O50       2.31999      .   S
    Zr4    O50       3.31002  1_556   S
    N47    O51       2.32082      .   S
    Zr6    O51       3.31121      .   S
    N52    O53       2.32307      .   S
    Zr2    O53       3.31629  1_456   S
    N52    O54       2.32252      .   S
    Zr1    O54       3.31536      .   S
    N52    O55       2.31987      .   S
    Zr5    O55       3.30964  1_556   S
    N52    O56       2.32080      .   S
    Zr7    O56       3.31117      .   S
    N57    O58       2.31990      .   S
    Zr2    O58       3.30983  1_556   S
    N57    O59       2.32462  1_565   S
    Zr7    O59       3.31842  1_655   S
    N57    O60       2.32435      .   S
    Zr4    O60       3.31835  1_556   S
    N57    O61       2.31897  1_565   S
    Zr0    O61       3.30820      .   S
    N62    O63       2.31984      .   S
    Zr3    O63       3.30983  1_556   S
    N62    O64       2.32452  1_565   S
    Zr6    O64       3.31857      .   S
    N62    O65       2.32421      .   S
    Zr5    O65       3.31788  1_556   S
    N62    O66       2.31903  1_565   S
    Zr1    O66       3.30832      .   S
    N67    O68       2.32293      .   S
    Zr3    O68       3.31607      .   S
    N67    O69       2.31985      .   S
    Zr6    O69       3.30961      .   S
    N67    O70       2.32068      .   S
    Zr4    O70       3.31068      .   S
    N67    O71       2.32348      .   S
    Zr0    O71       3.31694      .   S
