# CIF file generated by openbabel 2.4.90, see http://openbabel.sf.net
data_I
_chemical_name_common ''
_cell_length_a 15.026
_cell_length_b 14.001
_cell_length_c 14.741
_cell_angle_alpha 62.372
_cell_angle_beta 59.451
_cell_angle_gamma 57.636
_space_group_name_H-M_alt 'P 1'
_space_group_name_Hall 'P 1'
loop_
    _symmetry_equiv_pos_as_xyz
    x,y,z
loop_
    _atom_site_label
    _atom_site_type_symbol
    _atom_site_fract_x
    _atom_site_fract_y
    _atom_site_fract_z
    _atom_site_occupancy
    Cd0     Cd   0.61243   0.47387   0.86438   1.000
    Cd1     Cd   0.04985   0.97351   0.36450   1.000
    Cd2     Cd   0.38761   0.52616   0.13548   1.000
    Cd3     Cd   0.70529   0.25026   0.74979   1.000
    Cd4     Cd   0.29475   0.74978   0.25006   1.000
    Cd5     Cd   0.95020   0.02653   0.63534   1.000
