# CIF file generated by openbabel 2.4.90, see http://openbabel.sf.net
data_I
_chemical_name_common ''
_cell_length_a 15.026
_cell_length_b 14.001
_cell_length_c 14.741
_cell_angle_alpha 62.372
_cell_angle_beta 59.451
_cell_angle_gamma 57.636
_space_group_name_H-M_alt 'P 1'
_space_group_name_Hall 'P 1'
loop_
    _symmetry_equiv_pos_as_xyz
    x,y,z
loop_
    _atom_site_label
    _atom_site_type_symbol
    _atom_site_fract_x
    _atom_site_fract_y
    _atom_site_fract_z
    _atom_site_occupancy
    Cd0     Cd   0.61243   0.47387   0.86438   1.000
    Cd1     Cd   0.04985   0.97351   0.36450   1.000
    Cd2     Cd   0.38761   0.52616   0.13548   1.000
    Cd3     Cd   0.70529   0.25026   0.74979   1.000
    Cd4     Cd   0.29475   0.74978   0.25006   1.000
    C5      C    0.83456   0.20220   0.49304   1.000
    Cd6     Cd   0.95020   0.02653   0.63534   1.000
    C7      C    0.95794   0.04669   0.80952   1.000
    C8      C    0.51083   0.50079   0.27250   1.000
    C9      C    0.52968   0.29828   0.00619   1.000
    C10     C    0.81417   0.45380   0.69008   1.000
    C11     C    0.28463   0.99878   0.22738   1.000
    C12     C    0.16551   0.79784   0.50600   1.000
    C13     C    0.04209   0.95332   0.19035   1.000
    C14     C    0.48920   0.49924   0.72737   1.000
    C15     C    0.47037   0.70175   0.99366   1.000
    C16     C    0.18588   0.54622   0.30978   1.000
    C17     C    0.71542   0.00126   0.77244   1.000
    O18     O    0.90768   0.10143   0.47513   1.000
    O19     O    0.82827   0.23035   0.56700   1.000
    O20     O    0.50295   0.45121   0.22437   1.000
    O21     O    0.85884   0.10904   0.80725   1.000
    O22     O    0.45239   0.60543   0.28133   1.000
    O23     O    0.03970   0.99751   0.73306   1.000
    O24     O    0.48394   0.39929   0.02380   1.000
    O25     O    0.62656   0.26990   0.93190   1.000
    O26     O    0.17935   0.04810   0.27589   1.000
    O27     O    0.77514   0.39136   0.69228   1.000
    O28     O    0.33957   0.89413   0.21855   1.000
    O29     O    0.77050   0.50295   0.76658   1.000
    O30     O    0.09237   0.89861   0.52472   1.000
    O31     O    0.17178   0.76969   0.43195   1.000
    O32     O    0.49708   0.54881   0.77550   1.000
    O33     O    0.14119   0.89097   0.19262   1.000
    O34     O    0.54763   0.39459   0.71855   1.000
    O35     O    0.96033   0.00251   0.26681   1.000
    O36     O    0.51612   0.60074   0.97605   1.000
    O37     O    0.37350   0.73013   0.06795   1.000
    O38     O    0.82070   0.95194   0.72393   1.000
    O39     O    0.22489   0.60868   0.30757   1.000
    O40     O    0.66048   0.10591   0.78128   1.000
    O41     O    0.22955   0.49707   0.23329   1.000
loop_
    _geom_bond_atom_site_label_1
    _geom_bond_atom_site_label_2
    _geom_bond_distance
    _geom_bond_site_symmetry_2
    _ccdc_geom_bond_type
    C9     O24       1.28772      .   S
    C9     O25       1.28060  1_554   S
    O24    Cd2       2.34481      .   S
    O37    Cd4       2.40620      .   S
    O37    C15       1.28058  1_554   S
    Cd2    O20       2.21535      .   S
    Cd2    O41       2.21257      .   S
    C13    O33       1.26977      .   S
    C13    O35       1.28861  1_465   S
    O33    Cd4       2.34510      .   S
    O28    C11       1.27204      .   S
    O28    Cd4       2.24101      .   S
    O20    C8        1.27644      .   S
    C11    O26       1.27640  1_565   S
    O41    C16       1.28829      .   S
    Cd4    O22       2.24243      .   S
    Cd4    O39       2.34214      .   S
    Cd4    O31       2.40549      .   S
    O35    Cd1       2.21129  1_645   S
    C8     O22       1.27202      .   S
    O26    Cd1       2.21593  1_545   S
    O39    C16       1.26977      .   S
    Cd1    O18       2.34567  1_465   S
    O31    C12       1.26901      .   S
    O18    C5        1.28787      .   S
    C5     O19       1.26760      .   S
    C12    O30       1.29122      .   S
    O30    Cd6       2.34556  1_465   S
    O19    Cd3       2.41583      .   S
    Cd6    O38       2.21593  1_545   S
    Cd6    O23       2.21136  1_645   S
    C10    O27       1.26975      .   S
    C10    O29       1.28833      .   S
    O27    Cd3       2.34214      .   S
    O34    C14       1.27200      .   S
    O34    Cd3       2.24243      .   S
    O38    C17       1.27640  1_565   S
    C14    O32       1.27643      .   S
    O23    C7        1.28856  1_465   S
    Cd3    O40       2.24098      .   S
    Cd3    O21       2.34513      .   S
    Cd3    O25       2.40617      .   S
    O29    Cd0       2.21252      .   S
    C17    O40       1.27206      .   S
    O32    Cd0       2.21544      .   S
    O21    C7        1.26974      .   S
    Cd0    O36       2.34467      .   S
    O36    C15       1.28779      .   S
    O18    Cd6       2.36751      .   S
    O19    Cd6       2.47546      .   S
    O24    Cd0       2.36872  1_554   S
    O25    Cd0       2.47402      .   S
    O30    Cd1       2.36768      .   S
    O31    Cd1       2.47220      .   S
    O36    Cd2       2.36889  1_556   S
    O37    Cd2       2.47396      .   S
