# CIF file generated by openbabel 2.4.90, see http://openbabel.sf.net
data_I
_chemical_name_common ''
_cell_length_a 15.026
_cell_length_b 14.001
_cell_length_c 14.741
_cell_angle_alpha 62.372
_cell_angle_beta 59.451
_cell_angle_gamma 57.636
_space_group_name_H-M_alt 'P 1'
_space_group_name_Hall 'P 1'
loop_
    _symmetry_equiv_pos_as_xyz
    x,y,z
loop_
    _atom_site_label
    _atom_site_type_symbol
    _atom_site_fract_x
    _atom_site_fract_y
    _atom_site_fract_z
    _atom_site_occupancy
    C0      C    0.83456   0.20220   0.49304   1.000
    C1      C    0.95794   0.04669   0.80952   1.000
    C2      C    0.51083   0.50079   0.27250   1.000
    C3      C    0.52968   0.29828   0.00619   1.000
    C4      C    0.81417   0.45380   0.69008   1.000
    C5      C    0.28463   0.99878   0.22738   1.000
    C6      C    0.16551   0.79784   0.50600   1.000
    C7      C    0.04209   0.95332   0.19035   1.000
    C8      C    0.48920   0.49924   0.72737   1.000
    C9      C    0.47037   0.70175   0.99366   1.000
    C10     C    0.18588   0.54622   0.30978   1.000
    C11     C    0.71542   0.00126   0.77244   1.000
