# CIF file generated by openbabel 2.4.90, see http://openbabel.sf.net
data_I
_chemical_name_common ''
_cell_length_a 15.026
_cell_length_b 14.001
_cell_length_c 14.741
_cell_angle_alpha 62.372
_cell_angle_beta 59.451
_cell_angle_gamma 57.636
_space_group_name_H-M_alt 'P 1'
_space_group_name_Hall 'P 1'
loop_
    _symmetry_equiv_pos_as_xyz
    x,y,z
loop_
    _atom_site_label
    _atom_site_type_symbol
    _atom_site_fract_x
    _atom_site_fract_y
    _atom_site_fract_z
    _atom_site_occupancy
    Zr0     Zr   0.95020   0.02653   0.63534   1.000
    Zr1     Zr   0.61243   0.47387   0.86438   1.000
    Zr2     Zr   0.04985   0.97351   0.36450   1.000
    Zr3     Zr   0.38761   0.52616   0.13548   1.000
    Zr4     Zr   0.70529   0.25026   0.74979   1.000
    Zr5     Zr   0.29475   0.74978   0.25006   1.000
    N6      N    0.00001   0.00000   0.99992   1.000
    N7      N    0.59020   0.85386   0.87783   1.000
    N8      N    0.67851   0.35399   0.37723   1.000
    N9      N    0.40985   0.14618   0.12057   1.000
    N10     N    0.00003   0.50001   0.49993   1.000
    N11     N    0.32154   0.64604   0.62261   1.000
    C12     C    0.04787   0.94894   0.21659   1.000
    O13     O    0.13292   0.88466   0.21897   1.000
    O14     O    0.02648   0.96847   0.26612   1.000
    O15     O    0.03162   0.96563   0.14371   1.000
    C16     C    0.95216   0.05108   0.78328   1.000
    O17     O    0.97356   0.03155   0.73374   1.000
    O18     O    0.86711   0.11536   0.78090   1.000
    O19     O    0.96840   0.03438   0.85616   1.000
    C20     C    0.48872   0.51914   0.25940   1.000
    O21     O    0.46700   0.50391   0.21966   1.000
    O22     O    0.43115   0.59837   0.26255   1.000
    O23     O    0.55276   0.46390   0.29870   1.000
    C24     C    0.14322   0.82205   0.48756   1.000
    O25     O    0.08226   0.89231   0.53379   1.000
    O26     O    0.10717   0.87905   0.46608   1.000
    O27     O    0.20309   0.76209   0.53379   1.000
    O28     O    0.18824   0.79089   0.41428   1.000
    O29     O    0.12702   0.84682   0.44289   1.000
    C30     C    0.26785   0.98034   0.24061   1.000
    O31     O    0.29251   0.90114   0.23746   1.000
    O32     O    0.19123   0.99557   0.28040   1.000
    O33     O    0.31578   0.03582   0.20068   1.000
    C34     C    0.78660   0.44937   0.71631   1.000
    O35     O    0.76341   0.38509   0.71867   1.000
    O36     O    0.73904   0.46889   0.76590   1.000
    O37     O    0.85901   0.46595   0.64352   1.000
    C38     C    0.85684   0.17800   0.51172   1.000
    O39     O    0.79697   0.23795   0.46566   1.000
    O40     O    0.81181   0.20915   0.58506   1.000
    O41     O    0.87304   0.15322   0.55645   1.000
    O42     O    0.91780   0.10773   0.46577   1.000
    O43     O    0.89289   0.12099   0.53348   1.000
    C44     C    0.45333   0.67754   0.01255   1.000
    O45     O    0.49937   0.73759   0.96640   1.000
    O46     O    0.39373   0.70875   0.08578   1.000
    O47     O    0.41694   0.65284   0.05713   1.000
    O48     O    0.50881   0.60742   0.96638   1.000
    O49     O    0.45260   0.62049   0.03416   1.000
    C50     C    0.54673   0.32249   0.98730   1.000
    O51     O    0.50068   0.26244   0.03307   1.000
    O52     O    0.49125   0.39261   0.03347   1.000
    O53     O    0.54746   0.37953   0.96569   1.000
    O54     O    0.60633   0.29128   0.91407   1.000
    O55     O    0.58311   0.34719   0.94272   1.000
    C56     C    0.21344   0.55066   0.28355   1.000
    O57     O    0.14104   0.53407   0.35635   1.000
    O58     O    0.26101   0.53114   0.23397   1.000
    O59     O    0.23663   0.61494   0.28118   1.000
    C60     C    0.73220   0.01971   0.75922   1.000
    O61     O    0.70754   0.09890   0.76238   1.000
    O62     O    0.68427   0.96422   0.79879   1.000
    O63     O    0.80882   0.00447   0.71943   1.000
    C64     C    0.51131   0.48088   0.74047   1.000
    O65     O    0.44728   0.53613   0.70116   1.000
    O66     O    0.56888   0.40165   0.73732   1.000
    O67     O    0.53303   0.49611   0.78021   1.000
loop_
    _geom_bond_atom_site_label_1
    _geom_bond_atom_site_label_2
    _geom_bond_distance
    _geom_bond_site_symmetry_2
    _ccdc_geom_bond_type
    C12    O13       1.10874      .   S
    Zr5    O13       2.25908      .   S
    C12    O14       0.75085      .   S
    Zr2    O14       1.69415      .   S
    C12    O15       1.11408      .   S
    N6     O15       2.18696  1_546   S
    C16    O17       0.75087      .   S
    Zr0    O17       1.69422      .   S
    C16    O18       1.10873      .   S
    Zr4    O18       2.25907      .   S
    C16    O19       1.11390      .   S
    N6     O19       2.18645  1_455   S
    C20    O21       0.93798      .   S
    Zr3    O21       1.95153      .   S
    C20    O22       0.98014      .   S
    Zr5    O22       2.02442      .   S
    C20    O23       1.10182      .   S
    N8     O23       2.17637      .   S
    C24    O25       1.13746      .   S
    Zr0    O25       2.30368  1_645   S
    C24    O26       0.71261      .   S
    Zr2    O26       1.72859      .   S
    C24    O27       1.12364      .   S
    N11    O27       2.19588      .   S
    C24    O28       1.09221      .   S
    Zr5    O28       2.26285      .   S
    C24    O29       0.68836      .   S
    Zr2    O29       1.75649      .   S
    C30    O31       0.97942      .   S
    Zr5    O31       2.02275      .   S
    C30    O32       0.93905      .   S
    Zr2    O32       1.95330      .   S
    C30    O33       1.10120  1_565   S
    N9     O33       2.17462      .   S
    C34    O35       1.10772      .   S
    Zr4    O35       2.25645      .   S
    C34    O36       0.75157      .   S
    Zr1    O36       1.69579      .   S
    C34    O37       1.11424      .   S
    N10    O37       2.18720  1_455   S
    C38    O39       1.12190      .   S
    N8     O39       2.19226      .   S
    C38    O40       1.09295      .   S
    Zr4    O40       2.26907      .   S
    C38    O41       0.68910      .   S
    Zr0    O41       1.76038      .   S
    C38    O42       1.13503      .   S
    Zr2    O42       2.30130  1_465   S
    C38    O43       0.71393      .   S
    Zr0    O43       1.73169      .   S
    C44    O45       1.12342  1_554   S
    N7     O45       2.19390      .   S
    C44    O46       1.09266      .   S
    Zr5    O46       2.26292      .   S
    C44    O47       0.69049      .   S
    Zr3    O47       1.75881      .   S
    C44    O48       1.13520  1_554   S
    Zr1    O48       2.30052      .   S
    C44    O49       0.71369      .   S
    Zr3    O49       1.73125      .   S
    C50    O51       1.12374  1_556   S
    N9     O51       2.19497      .   S
    C50    O52       1.13523  1_556   S
    Zr3    O52       2.30062      .   S
    C50    O53       0.71369      .   S
    Zr1    O53       1.73118      .   S
    C50    O54       1.09265      .   S
    Zr4    O54       2.26289      .   S
    C50    O55       0.69045      .   S
    Zr1    O55       1.75879      .   S
    C56    O57       1.11425      .   S
    N10    O57       2.18720      .   S
    C56    O58       0.75157      .   S
    Zr3    O58       1.69582      .   S
    C56    O59       1.10774      .   S
    Zr5    O59       2.25647      .   S
    C60    O61       0.97944      .   S
    Zr4    O61       2.02276      .   S
    C60    O62       1.10188  1_545   S
    N7     O62       2.17655      .   S
    C60    O63       0.93905      .   S
    Zr0    O63       1.95330      .   S
    C64    O65       1.10185      .   S
    N11    O65       2.17648      .   S
    C64    O66       0.98013      .   S
    Zr4    O66       2.02441      .   S
    C64    O67       0.93800      .   S
    Zr1    O67       1.95161      .   S
