# CIF file generated by openbabel 2.4.90, see http://openbabel.sf.net
data_I
_chemical_name_common ''
_cell_length_a 19.797
_cell_length_b 19.8
_cell_length_c 15.418
_cell_angle_alpha 74.151
_cell_angle_beta 74.164
_cell_angle_gamma 82.483
_space_group_name_H-M_alt 'P 1'
_space_group_name_Hall 'P 1'
loop_
    _symmetry_equiv_pos_as_xyz
    x,y,z
loop_
    _atom_site_label
    _atom_site_type_symbol
    _atom_site_fract_x
    _atom_site_fract_y
    _atom_site_fract_z
    _atom_site_occupancy
    P0      P    0.43816   0.32215   0.07900   1.000
    P1      P    0.43816   0.82214   0.07900   1.000
    P2      P    0.93816   0.32215   0.07900   1.000
    P3      P    0.93816   0.82214   0.07900   1.000
    P4      P    0.15757   0.46842   0.12571   1.000
    P5      P    0.15757   0.96841   0.12571   1.000
    P6      P    0.65757   0.46842   0.12571   1.000
    P7      P    0.65757   0.96841   0.12571   1.000
    P8      P    0.39431   0.02094   0.16895   1.000
    P9      P    0.39431   0.52093   0.16895   1.000
    P10     P    0.89431   0.02094   0.16895   1.000
    P11     P    0.89431   0.52093   0.16895   1.000
    P12     P    0.17782   0.06184   0.42105   1.000
    P13     P    0.17782   0.56183   0.42105   1.000
    P14     P    0.67782   0.06184   0.42105   1.000
    P15     P    0.67782   0.56183   0.42105   1.000
    P16     P    0.03157   0.34243   0.37433   1.000
    P17     P    0.03157   0.84242   0.37433   1.000
    P18     P    0.53157   0.34243   0.37433   1.000
    P19     P    0.53157   0.84242   0.37433   1.000
    P20     P    0.47908   0.10568   0.33101   1.000
    P21     P    0.47908   0.60568   0.33101   1.000
    P22     P    0.97908   0.10568   0.33101   1.000
    P23     P    0.97909   0.60568   0.33101   1.000
    P24     P    0.06185   0.17785   0.92101   1.000
    P25     P    0.06186   0.67785   0.92101   1.000
    P26     P    0.56186   0.17785   0.92101   1.000
    P27     P    0.56186   0.67785   0.92101   1.000
    P28     P    0.34244   0.03158   0.87430   1.000
    P29     P    0.34244   0.53158   0.87430   1.000
    P30     P    0.84244   0.03158   0.87430   1.000
    P31     P    0.84245   0.53158   0.87430   1.000
    P32     P    0.10570   0.47906   0.83106   1.000
    P33     P    0.10570   0.97906   0.83106   1.000
    P34     P    0.60570   0.47906   0.83106   1.000
    P35     P    0.60571   0.97906   0.83106   1.000
    P36     P    0.32219   0.43816   0.57896   1.000
    P37     P    0.32219   0.93815   0.57896   1.000
    P38     P    0.82219   0.43816   0.57896   1.000
    P39     P    0.82220   0.93815   0.57896   1.000
    P40     P    0.46844   0.15757   0.62567   1.000
    P41     P    0.46844   0.65757   0.62567   1.000
    P42     P    0.96844   0.15757   0.62567   1.000
    P43     P    0.96845   0.65757   0.62567   1.000
    P44     P    0.02093   0.39431   0.66899   1.000
    P45     P    0.02093   0.89431   0.66899   1.000
    P46     P    0.52093   0.39431   0.66899   1.000
    P47     P    0.52093   0.89431   0.66899   1.000
