# CIF file generated by openbabel 2.4.90, see http://openbabel.sf.net
data_I
_chemical_name_common ''
_cell_length_a 19.797
_cell_length_b 19.8
_cell_length_c 15.418
_cell_angle_alpha 74.151
_cell_angle_beta 74.164
_cell_angle_gamma 82.483
_space_group_name_H-M_alt 'P 1'
_space_group_name_Hall 'P 1'
loop_
    _symmetry_equiv_pos_as_xyz
    x,y,z
loop_
    _atom_site_label
    _atom_site_type_symbol
    _atom_site_fract_x
    _atom_site_fract_y
    _atom_site_fract_z
    _atom_site_occupancy
    Mc0     Mc   0.96853   0.82987   0.46015   1.000
    Mc1     Mc   0.07493   0.77255   0.36693   1.000
    Mc2     Mc   0.00153   0.87298   0.28839   1.000
    Mc3     Mc   0.08050   0.89412   0.38190   1.000
    Mc4     Mc   0.59545   0.89944   0.86200   1.000
    Mc5     Mc   0.63303   0.00284   0.72424   1.000
    Mc6     Mc   0.65996   0.99375   0.87720   1.000
    Mc7     Mc   0.53449   0.01938   0.86150   1.000
    Mc8     Mc   0.36698   0.99716   0.27577   1.000
    Mc9     Mc   0.34006   0.00624   0.12272   1.000
    Mc10    Mc   0.40457   0.10055   0.13711   1.000
    Mc11    Mc   0.46553   0.98061   0.13850   1.000
    Mc12    Mc   0.15996   0.99375   0.87728   1.000
    Mc13    Mc   0.03449   0.01938   0.86150   1.000
    Mc14    Mc   0.09544   0.89944   0.86200   1.000
    Mc15    Mc   0.13303   0.00284   0.72424   1.000
    Mc16    Mc   0.62704   0.49842   0.21160   1.000
    Mc17    Mc   0.67011   0.53148   0.03990   1.000
    Mc18    Mc   0.72746   0.42506   0.13307   1.000
    Mc19    Mc   0.60586   0.41950   0.11814   1.000
    Mc20    Mc   0.32990   0.46851   0.96011   1.000
    Mc21    Mc   0.39415   0.58049   0.88186   1.000
    Mc22    Mc   0.37298   0.50157   0.78834   1.000
    Mc23    Mc   0.27256   0.57494   0.86694   1.000
    Mc24    Mc   0.08050   0.39412   0.38190   1.000
    Mc25    Mc   0.00153   0.37298   0.28839   1.000
    Mc26    Mc   0.07493   0.27256   0.36693   1.000
    Mc27    Mc   0.96853   0.32987   0.46015   1.000
    Mc28    Mc   0.96129   0.34314   0.97175   1.000
    Mc29    Mc   0.99577   0.33880   0.11930   1.000
    Mc30    Mc   0.86811   0.36267   0.11164   1.000
    Mc31    Mc   0.92604   0.24317   0.11473   1.000
    Mc32    Mc   0.34006   0.50624   0.12272   1.000
    Mc33    Mc   0.40457   0.60055   0.13711   1.000
    Mc34    Mc   0.36698   0.49716   0.27577   1.000
    Mc35    Mc   0.46552   0.48061   0.13850   1.000
    Mc36    Mc   0.10586   0.91949   0.11814   1.000
    Mc37    Mc   0.17011   0.03148   0.03990   1.000
    Mc38    Mc   0.22746   0.92505   0.13307   1.000
    Mc39    Mc   0.12704   0.99841   0.21160   1.000
    Mc40    Mc   0.99377   0.15995   0.37720   1.000
    Mc41    Mc   0.00288   0.13297   0.22410   1.000
    Mc42    Mc   0.89946   0.09544   0.36281   1.000
    Mc43    Mc   0.01938   0.03447   0.36153   1.000
    Mc44    Mc   0.13733   0.63190   0.38830   1.000
    Mc45    Mc   0.16119   0.50423   0.38068   1.000
    Mc46    Mc   0.15674   0.53875   0.52832   1.000
    Mc47    Mc   0.25681   0.57393   0.38540   1.000
    Mc48    Mc   0.65675   0.53875   0.52832   1.000
    Mc49    Mc   0.75682   0.57393   0.38540   1.000
    Mc50    Mc   0.66120   0.50423   0.38068   1.000
    Mc51    Mc   0.63733   0.63190   0.38830   1.000
    Mc52    Mc   0.41951   0.60587   0.61811   1.000
    Mc53    Mc   0.49848   0.62701   0.71162   1.000
    Mc54    Mc   0.53149   0.67012   0.53986   1.000
    Mc55    Mc   0.42508   0.72743   0.63300   1.000
    Mc56    Mc   0.53873   0.65685   0.02826   1.000
    Mc57    Mc   0.57398   0.75682   0.88528   1.000
    Mc58    Mc   0.50425   0.66119   0.88063   1.000
    Mc59    Mc   0.63191   0.63732   0.88837   1.000
    Mc60    Mc   0.96553   0.98061   0.13850   1.000
    Mc61    Mc   0.86698   0.99716   0.27577   1.000
    Mc62    Mc   0.84006   0.00625   0.12272   1.000
    Mc63    Mc   0.90457   0.10055   0.13711   1.000
    Mc64    Mc   0.13191   0.63732   0.88837   1.000
    Mc65    Mc   0.00425   0.66119   0.88063   1.000
    Mc66    Mc   0.07398   0.75682   0.88528   1.000
    Mc67    Mc   0.03873   0.65685   0.02826   1.000
    Mc68    Mc   0.49576   0.33880   0.11938   1.000
    Mc69    Mc   0.46128   0.34314   0.97175   1.000
    Mc70    Mc   0.36810   0.36267   0.11164   1.000
    Mc71    Mc   0.42603   0.24317   0.11473   1.000
    Mc72    Mc   0.50425   0.16120   0.88063   1.000
    Mc73    Mc   0.63191   0.13733   0.88837   1.000
    Mc74    Mc   0.53873   0.15685   0.02826   1.000
    Mc75    Mc   0.57398   0.25683   0.88528   1.000
    Mc76    Mc   0.46853   0.32987   0.46015   1.000
    Mc77    Mc   0.50153   0.37298   0.28839   1.000
    Mc78    Mc   0.58050   0.39412   0.38190   1.000
    Mc79    Mc   0.57493   0.27256   0.36693   1.000
    Mc80    Mc   0.03449   0.51938   0.86150   1.000
    Mc81    Mc   0.15995   0.49375   0.87720   1.000
    Mc82    Mc   0.09544   0.39944   0.86200   1.000
    Mc83    Mc   0.13303   0.50283   0.72424   1.000
    Mc84    Mc   0.60056   0.40456   0.63720   1.000
    Mc85    Mc   0.49713   0.36703   0.77582   1.000
    Mc86    Mc   0.48063   0.46553   0.63848   1.000
    Mc87    Mc   0.50625   0.34005   0.62280   1.000
    Mc88    Mc   0.10056   0.90456   0.63720   1.000
    Mc89    Mc   0.98063   0.96552   0.63848   1.000
    Mc90    Mc   0.99714   0.86702   0.77582   1.000
    Mc91    Mc   0.00625   0.84004   0.62280   1.000
    Mc92    Mc   0.15674   0.03876   0.52832   1.000
    Mc93    Mc   0.16119   0.00423   0.38068   1.000
    Mc94    Mc   0.25681   0.07393   0.38540   1.000
    Mc95    Mc   0.13733   0.13190   0.38830   1.000
    Mc96    Mc   0.39946   0.09544   0.36281   1.000
    Mc97    Mc   0.49377   0.15995   0.37720   1.000
    Mc98    Mc   0.50288   0.13297   0.22410   1.000
    Mc99    Mc   0.51939   0.03447   0.36153   1.000
    Mc100   Mc   0.90457   0.60055   0.13711   1.000
    Mc101   Mc   0.86698   0.49716   0.27577   1.000
    Mc102   Mc   0.96553   0.48061   0.13850   1.000
    Mc103   Mc   0.84006   0.50624   0.12272   1.000
    Mc104   Mc   0.46128   0.84314   0.97175   1.000
    Mc105   Mc   0.36811   0.86266   0.11164   1.000
    Mc106   Mc   0.42604   0.74317   0.11473   1.000
    Mc107   Mc   0.49577   0.83880   0.11938   1.000
    Mc108   Mc   0.49377   0.65994   0.37720   1.000
    Mc109   Mc   0.50288   0.63296   0.22410   1.000
    Mc110   Mc   0.39946   0.59543   0.36281   1.000
    Mc111   Mc   0.51939   0.53446   0.36153   1.000
    Mc112   Mc   0.00288   0.63296   0.22410   1.000
    Mc113   Mc   0.01939   0.53446   0.36153   1.000
    Mc114   Mc   0.89946   0.59543   0.36281   1.000
    Mc115   Mc   0.99377   0.65994   0.37720   1.000
    Mc116   Mc   0.84327   0.46124   0.47169   1.000
    Mc117   Mc   0.86268   0.36810   0.61168   1.000
    Mc118   Mc   0.83882   0.49577   0.61930   1.000
    Mc119   Mc   0.74320   0.42606   0.61460   1.000
    Mc120   Mc   0.33882   0.49577   0.61932   1.000
    Mc121   Mc   0.34327   0.46124   0.47169   1.000
    Mc122   Mc   0.36268   0.36810   0.61168   1.000
    Mc123   Mc   0.24320   0.42606   0.61461   1.000
    Mc124   Mc   0.50625   0.84005   0.62280   1.000
    Mc125   Mc   0.48063   0.96552   0.63848   1.000
    Mc126   Mc   0.60056   0.90456   0.63720   1.000
    Mc127   Mc   0.49714   0.86702   0.77582   1.000
    Mc128   Mc   0.03148   0.67012   0.53986   1.000
    Mc129   Mc   0.91952   0.60587   0.61811   1.000
    Mc130   Mc   0.99849   0.62701   0.71162   1.000
    Mc131   Mc   0.92508   0.72743   0.63300   1.000
    Mc132   Mc   0.46853   0.82987   0.46015   1.000
    Mc133   Mc   0.50153   0.87298   0.28839   1.000
    Mc134   Mc   0.58050   0.89412   0.38190   1.000
    Mc135   Mc   0.57494   0.77255   0.36693   1.000
    Mc136   Mc   0.22745   0.42506   0.13307   1.000
    Mc137   Mc   0.12704   0.49842   0.21167   1.000
    Mc138   Mc   0.17011   0.53148   0.03990   1.000
    Mc139   Mc   0.10586   0.41950   0.11814   1.000
    Mc140   Mc   0.86269   0.86809   0.61168   1.000
    Mc141   Mc   0.84327   0.96123   0.47169   1.000
    Mc142   Mc   0.74321   0.92606   0.61461   1.000
    Mc143   Mc   0.83883   0.99576   0.61932   1.000
    Mc144   Mc   0.86811   0.86266   0.11164   1.000
    Mc145   Mc   0.99577   0.83880   0.11938   1.000
    Mc146   Mc   0.92604   0.74317   0.11473   1.000
    Mc147   Mc   0.96129   0.84314   0.97175   1.000
    Mc148   Mc   0.37297   0.00158   0.78834   1.000
    Mc149   Mc   0.27256   0.07494   0.86694   1.000
    Mc150   Mc   0.39415   0.08050   0.88186   1.000
    Mc151   Mc   0.32990   0.96851   0.96011   1.000
    Mc152   Mc   0.99848   0.12701   0.71162   1.000
    Mc153   Mc   0.03148   0.17013   0.53986   1.000
    Mc154   Mc   0.92508   0.22744   0.63300   1.000
    Mc155   Mc   0.91951   0.10587   0.61811   1.000
    Mc156   Mc   0.36269   0.86809   0.61168   1.000
    Mc157   Mc   0.34327   0.96123   0.47169   1.000
    Mc158   Mc   0.33882   0.99576   0.61930   1.000
    Mc159   Mc   0.24320   0.92606   0.61460   1.000
    Mc160   Mc   0.66119   0.00423   0.38068   1.000
    Mc161   Mc   0.63733   0.13190   0.38830   1.000
    Mc162   Mc   0.65675   0.03876   0.52832   1.000
    Mc163   Mc   0.75681   0.07393   0.38540   1.000
    Mc164   Mc   0.00424   0.16120   0.88063   1.000
    Mc165   Mc   0.07398   0.25683   0.88528   1.000
    Mc166   Mc   0.13191   0.13733   0.88837   1.000
    Mc167   Mc   0.03873   0.15685   0.02826   1.000
    Mc168   Mc   0.41951   0.10587   0.61811   1.000
    Mc169   Mc   0.49848   0.12701   0.71162   1.000
    Mc170   Mc   0.42508   0.22744   0.63300   1.000
    Mc171   Mc   0.53148   0.17013   0.53986   1.000
    Mc172   Mc   0.98063   0.46553   0.63848   1.000
    Mc173   Mc   0.00624   0.34005   0.62280   1.000
    Mc174   Mc   0.10055   0.40456   0.63720   1.000
    Mc175   Mc   0.99714   0.36703   0.77582   1.000
    Mc176   Mc   0.67011   0.03148   0.03990   1.000
    Mc177   Mc   0.72746   0.92505   0.13307   1.000
    Mc178   Mc   0.60587   0.91949   0.11814   1.000
    Mc179   Mc   0.62704   0.99841   0.21160   1.000
    Mc180   Mc   0.77256   0.07494   0.86694   1.000
    Mc181   Mc   0.89415   0.08050   0.88186   1.000
    Mc182   Mc   0.82991   0.96851   0.96011   1.000
    Mc183   Mc   0.87297   0.00158   0.78834   1.000
    Mc184   Mc   0.59545   0.39944   0.86200   1.000
    Mc185   Mc   0.65996   0.49375   0.87728   1.000
    Mc186   Mc   0.53449   0.51938   0.86150   1.000
    Mc187   Mc   0.63304   0.50283   0.72424   1.000
    Mc188   Mc   0.89415   0.58049   0.88186   1.000
    Mc189   Mc   0.77256   0.57494   0.86694   1.000
    Mc190   Mc   0.87298   0.50157   0.78834   1.000
    Mc191   Mc   0.82990   0.46852   0.96011   1.000
