# CIF file generated by openbabel 2.4.90, see http://openbabel.sf.net
data_I
_chemical_name_common ''
_cell_length_a 19.797
_cell_length_b 19.8
_cell_length_c 15.418
_cell_angle_alpha 74.151
_cell_angle_beta 74.164
_cell_angle_gamma 82.483
_space_group_name_H-M_alt 'P 1'
_space_group_name_Hall 'P 1'
loop_
    _symmetry_equiv_pos_as_xyz
    x,y,z
loop_
    _atom_site_label
    _atom_site_type_symbol
    _atom_site_fract_x
    _atom_site_fract_y
    _atom_site_fract_z
    _atom_site_occupancy
    N0      N    0.03157   0.84242   0.37433   1.000
    N1      N    0.60571   0.97906   0.83106   1.000
    N2      N    0.39431   0.02094   0.16895   1.000
    N3      N    0.10570   0.97906   0.83106   1.000
    N4      N    0.65757   0.46842   0.12571   1.000
    N5      N    0.34244   0.53158   0.87430   1.000
    N6      N    0.03157   0.34243   0.37433   1.000
    N7      N    0.93816   0.32215   0.07900   1.000
    N8      N    0.39431   0.52093   0.16895   1.000
    N9      N    0.15757   0.96841   0.12571   1.000
    N10     N    0.97908   0.10568   0.33101   1.000
    N11     N    0.17782   0.56183   0.42105   1.000
    N12     N    0.67782   0.56183   0.42105   1.000
    N13     N    0.46844   0.65757   0.62567   1.000
    N14     N    0.56186   0.67785   0.92101   1.000
    N15     N    0.89431   0.02094   0.16895   1.000
    N16     N    0.06185   0.67785   0.92101   1.000
    N17     N    0.43816   0.32215   0.07900   1.000
    N18     N    0.56186   0.17785   0.92101   1.000
    N19     N    0.53157   0.34243   0.37433   1.000
    N20     N    0.10570   0.47906   0.83106   1.000
    N21     N    0.52093   0.39431   0.66899   1.000
    N22     N    0.02093   0.89431   0.66899   1.000
    N23     N    0.17782   0.06184   0.42105   1.000
    N24     N    0.47908   0.10568   0.33101   1.000
    N25     N    0.89431   0.52093   0.16895   1.000
    N26     N    0.43816   0.82214   0.07900   1.000
    N27     N    0.47908   0.60568   0.33101   1.000
    N28     N    0.97909   0.60568   0.33101   1.000
    N29     N    0.82219   0.43816   0.57896   1.000
    N30     N    0.32219   0.43816   0.57896   1.000
    N31     N    0.52093   0.89431   0.66899   1.000
    N32     N    0.96845   0.65757   0.62567   1.000
    N33     N    0.53157   0.84242   0.37433   1.000
    N34     N    0.15757   0.46842   0.12571   1.000
    N35     N    0.82220   0.93815   0.57896   1.000
    N36     N    0.93816   0.82214   0.07900   1.000
    N37     N    0.34244   0.03158   0.87430   1.000
    N38     N    0.96844   0.15757   0.62567   1.000
    N39     N    0.32219   0.93815   0.57896   1.000
    N40     N    0.67782   0.06184   0.42105   1.000
    N41     N    0.06185   0.17785   0.92101   1.000
    N42     N    0.46844   0.15757   0.62567   1.000
    N43     N    0.02093   0.39431   0.66899   1.000
    N44     N    0.65757   0.96841   0.12571   1.000
    N45     N    0.84244   0.03158   0.87430   1.000
    N46     N    0.60570   0.47906   0.83106   1.000
    N47     N    0.84245   0.53158   0.87430   1.000
    Zr48    Zr   0.94042   0.31677   0.58140   1.000
    O49     O    0.93467   0.28327   0.60075   1.000
    O50     O    0.91127   0.33601   0.59276   1.000
    O51     O    0.96510   0.32550   0.59693   1.000
    O52     O    0.95096   0.32168   0.53593   1.000
    Zr53    Zr   0.18323   0.55958   0.91863   1.000
    O54     O    0.17450   0.53490   0.90309   1.000
    O55     O    0.17831   0.54904   0.96411   1.000
    O56     O    0.21673   0.56534   0.89925   1.000
    O57     O    0.16399   0.58874   0.90728   1.000
    Zr58    Zr   0.15878   0.96826   0.62574   1.000
    O59     O    0.15802   0.99470   0.58921   1.000
    O60     O    0.13695   0.94437   0.63004   1.000
    O61     O    0.14912   0.98123   0.66268   1.000
    O62     O    0.19044   0.95243   0.62156   1.000
    Zr63    Zr   0.48324   0.59805   0.83301   1.000
    O64     O    0.44983   0.59146   0.85133   1.000
    O65     O    0.50246   0.56854   0.84369   1.000
    O66     O    0.49112   0.62172   0.85087   1.000
    O67     O    0.48895   0.60891   0.78749   1.000
    Zr68    Zr   0.40197   0.51679   0.66696   1.000
    O69     O    0.37829   0.50891   0.64910   1.000
    O70     O    0.43146   0.49757   0.65628   1.000
    O71     O    0.40855   0.55019   0.64864   1.000
    O72     O    0.39109   0.51108   0.71248   1.000
    Zr73    Zr   0.98324   0.09805   0.83301   1.000
    O74     O    0.94983   0.09147   0.85133   1.000
    O75     O    0.00246   0.06855   0.84369   1.000
    O76     O    0.99111   0.12173   0.85087   1.000
    O77     O    0.98895   0.10891   0.78749   1.000
    Zr78    Zr   0.09805   0.48320   0.33304   1.000
    O79     O    0.10892   0.48891   0.28753   1.000
    O80     O    0.06855   0.50242   0.34372   1.000
    O81     O    0.09146   0.44980   0.35136   1.000
    O82     O    0.12173   0.49109   0.35091   1.000
    Zr83    Zr   0.98324   0.59805   0.83301   1.000
    O84     O    0.98896   0.60891   0.78749   1.000
    O85     O    0.00246   0.56854   0.84369   1.000
    O86     O    0.94983   0.59146   0.85133   1.000
    O87     O    0.99112   0.62172   0.85087   1.000
    Zr88    Zr   0.05959   0.18323   0.41858   1.000
    O89     O    0.04905   0.17832   0.46406   1.000
    O90     O    0.06534   0.21673   0.39921   1.000
    O91     O    0.03491   0.17450   0.40306   1.000
    O92     O    0.08874   0.16398   0.40723   1.000
    Zr93    Zr   0.34123   0.03173   0.37426   1.000
    O94     O    0.35089   0.01877   0.33733   1.000
    O95     O    0.36306   0.05562   0.36997   1.000
    O96     O    0.34200   0.00530   0.41080   1.000
    O97     O    0.30957   0.04756   0.37844   1.000
    Zr98    Zr   0.48323   0.09805   0.83301   1.000
    O99     O    0.44983   0.09147   0.85133   1.000
    O100    O    0.50245   0.06855   0.84369   1.000
    O101    O    0.49111   0.12173   0.85087   1.000
    O102    O    0.48895   0.10891   0.78749   1.000
    Zr103   Zr   0.46826   0.15878   0.12571   1.000
    O104    O    0.44438   0.13694   0.12999   1.000
    O105    O    0.48124   0.14910   0.16261   1.000
    O106    O    0.45243   0.19042   0.12159   1.000
    O107    O    0.49469   0.15805   0.08917   1.000
    Zr108   Zr   0.05960   0.68323   0.41858   1.000
    O109    O    0.08875   0.66398   0.40723   1.000
    O110    O    0.06535   0.71672   0.39921   1.000
    O111    O    0.03491   0.67449   0.40306   1.000
    O112    O    0.04905   0.67831   0.46406   1.000
    Zr113   Zr   0.96827   0.65877   0.12571   1.000
    O114    O    0.98125   0.64909   0.16261   1.000
    O115    O    0.95243   0.69042   0.12159   1.000
    O116    O    0.94438   0.63694   0.12999   1.000
    O117    O    0.99469   0.65805   0.08917   1.000
    Zr118   Zr   0.01678   0.40195   0.16700   1.000
    O119    O    0.99756   0.43145   0.15631   1.000
    O120    O    0.05018   0.40853   0.14868   1.000
    O121    O    0.01106   0.39108   0.21252   1.000
    O122    O    0.00890   0.37827   0.14911   1.000
    Zr123   Zr   0.59805   0.98320   0.33304   1.000
    O124    O    0.62173   0.99108   0.35091   1.000
    O125    O    0.59147   0.94979   0.35136   1.000
    O126    O    0.60892   0.98890   0.28750   1.000
    O127    O    0.56855   0.00242   0.34372   1.000
    Zr128   Zr   0.46827   0.65877   0.12571   1.000
    O129    O    0.44438   0.63694   0.12999   1.000
    O130    O    0.48125   0.64909   0.16261   1.000
    O131    O    0.45243   0.69042   0.12159   1.000
    O132    O    0.49469   0.65805   0.08917   1.000
    Zr133   Zr   0.96827   0.15878   0.12571   1.000
    O134    O    0.95243   0.19042   0.12159   1.000
    O135    O    0.98124   0.14910   0.16261   1.000
    O136    O    0.94438   0.13694   0.12999   1.000
    O137    O    0.99469   0.15805   0.08917   1.000
    Zr138   Zr   0.18323   0.05959   0.91863   1.000
    O139    O    0.16398   0.08874   0.90728   1.000
    O140    O    0.17831   0.04905   0.96411   1.000
    O141    O    0.21673   0.06535   0.89925   1.000
    O142    O    0.17450   0.03490   0.90312   1.000
    Zr143   Zr   0.94042   0.81676   0.58140   1.000
    O144    O    0.95096   0.82167   0.53593   1.000
    O145    O    0.91127   0.83601   0.59276   1.000
    O146    O    0.96511   0.82549   0.59693   1.000
    O147    O    0.93467   0.78326   0.60075   1.000
    Zr148   Zr   0.90197   0.51679   0.66696   1.000
    O149    O    0.89110   0.51108   0.71248   1.000
    O150    O    0.93147   0.49757   0.65628   1.000
    O151    O    0.90855   0.55019   0.64864   1.000
    O152    O    0.87829   0.50891   0.64909   1.000
    Zr153   Zr   0.81678   0.44041   0.08138   1.000
    O154    O    0.82551   0.46509   0.09688   1.000
    O155    O    0.78328   0.43465   0.10076   1.000
    O156    O    0.83603   0.41125   0.09273   1.000
    O157    O    0.82170   0.45095   0.03590   1.000
    Zr158   Zr   0.15878   0.46826   0.62574   1.000
    O159    O    0.15802   0.49470   0.58921   1.000
    O160    O    0.14912   0.48123   0.66268   1.000
    O161    O    0.13694   0.44438   0.63004   1.000
    O162    O    0.19044   0.45244   0.62157   1.000
    Zr163   Zr   0.84124   0.53173   0.37426   1.000
    O164    O    0.84200   0.50529   0.41080   1.000
    O165    O    0.80958   0.54755   0.37844   1.000
    O166    O    0.85089   0.51876   0.33733   1.000
    O167    O    0.86307   0.55562   0.36997   1.000
    Zr168   Zr   0.03175   0.34122   0.87430   1.000
    O169    O    0.00532   0.34194   0.91084   1.000
    O170    O    0.04758   0.30957   0.87842   1.000
    O171    O    0.01877   0.35090   0.83737   1.000
    O172    O    0.05563   0.36305   0.86969   1.000
    Zr173   Zr   0.68324   0.55958   0.91863   1.000
    O174    O    0.71673   0.56534   0.89925   1.000
    O175    O    0.67451   0.53490   0.90312   1.000
    O176    O    0.67832   0.54904   0.96411   1.000
    O177    O    0.66399   0.58874   0.90728   1.000
    Zr178   Zr   0.90197   0.01679   0.66696   1.000
    O179    O    0.89109   0.01109   0.71248   1.000
    O180    O    0.90855   0.05020   0.64864   1.000
    O181    O    0.93147   0.99757   0.65628   1.000
    O182    O    0.87829   0.00891   0.64910   1.000
    Zr183   Zr   0.53175   0.84122   0.87430   1.000
    O184    O    0.54759   0.80957   0.87842   1.000
    O185    O    0.50533   0.84194   0.91084   1.000
    O186    O    0.55564   0.86305   0.86969   1.000
    O187    O    0.51877   0.85089   0.83737   1.000
    Zr188   Zr   0.53175   0.34122   0.87430   1.000
    O189    O    0.50532   0.34194   0.91084   1.000
    O190    O    0.54759   0.30957   0.87842   1.000
    O191    O    0.55564   0.36305   0.86969   1.000
    O192    O    0.51877   0.35090   0.83737   1.000
    Zr193   Zr   0.40196   0.01679   0.66696   1.000
    O194    O    0.43146   0.99757   0.65628   1.000
    O195    O    0.39109   0.01109   0.71248   1.000
    O196    O    0.40854   0.05020   0.64864   1.000
    O197    O    0.37829   0.00891   0.64909   1.000
    Zr198   Zr   0.68323   0.05959   0.91863   1.000
    O199    O    0.67451   0.03490   0.90309   1.000
    O200    O    0.67831   0.04905   0.96411   1.000
    O201    O    0.66399   0.08874   0.90728   1.000
    O202    O    0.71673   0.06535   0.89925   1.000
    Zr203   Zr   0.03175   0.84122   0.87430   1.000
    O204    O    0.00533   0.84194   0.91084   1.000
    O205    O    0.04759   0.80957   0.87842   1.000
    O206    O    0.05563   0.86305   0.86969   1.000
    O207    O    0.01877   0.85089   0.83737   1.000
    Zr208   Zr   0.44042   0.31677   0.58140   1.000
    O209    O    0.41127   0.33601   0.59276   1.000
    O210    O    0.45096   0.32168   0.53593   1.000
    O211    O    0.43466   0.28327   0.60075   1.000
    O212    O    0.46510   0.32550   0.59693   1.000
    Zr213   Zr   0.59805   0.48320   0.33304   1.000
    O214    O    0.56855   0.50242   0.34372   1.000
    O215    O    0.59147   0.44980   0.35136   1.000
    O216    O    0.62173   0.49109   0.35091   1.000
    O217    O    0.60892   0.48891   0.28750   1.000
    Zr218   Zr   0.51678   0.40195   0.16700   1.000
    O219    O    0.51106   0.39108   0.21252   1.000
    O220    O    0.55018   0.40853   0.14868   1.000
    O221    O    0.50890   0.37827   0.14914   1.000
    O222    O    0.49756   0.43145   0.15631   1.000
    Zr223   Zr   0.51678   0.90194   0.16700   1.000
    O224    O    0.51106   0.89108   0.21252   1.000
    O225    O    0.50890   0.87826   0.14914   1.000
    O226    O    0.49756   0.93144   0.15631   1.000
    O227    O    0.55019   0.90852   0.14868   1.000
    Zr228   Zr   0.31678   0.44041   0.08138   1.000
    O229    O    0.32551   0.46509   0.09688   1.000
    O230    O    0.28328   0.43465   0.10076   1.000
    O231    O    0.32170   0.45095   0.03590   1.000
    O232    O    0.33603   0.41125   0.09273   1.000
    Zr233   Zr   0.31678   0.94040   0.08138   1.000
    O234    O    0.32551   0.96509   0.09688   1.000
    O235    O    0.28328   0.93464   0.10076   1.000
    O236    O    0.33603   0.91125   0.09273   1.000
    O237    O    0.32170   0.95094   0.03590   1.000
    Zr238   Zr   0.09805   0.98320   0.33304   1.000
    O239    O    0.12173   0.99108   0.35091   1.000
    O240    O    0.10892   0.98890   0.28750   1.000
    O241    O    0.09147   0.94979   0.35136   1.000
    O242    O    0.06855   0.00242   0.34372   1.000
    Zr243   Zr   0.65878   0.96826   0.62574   1.000
    O244    O    0.69044   0.95243   0.62157   1.000
    O245    O    0.65802   0.99470   0.58921   1.000
    O246    O    0.64913   0.98123   0.66268   1.000
    O247    O    0.63695   0.94437   0.63004   1.000
    Zr248   Zr   0.65878   0.46826   0.62574   1.000
    O249    O    0.65802   0.49470   0.58921   1.000
    O250    O    0.63695   0.44438   0.63004   1.000
    O251    O    0.64913   0.48123   0.66268   1.000
    O252    O    0.69044   0.45244   0.62156   1.000
    Zr253   Zr   0.55960   0.68323   0.41858   1.000
    O254    O    0.53491   0.67449   0.40306   1.000
    O255    O    0.58875   0.66398   0.40723   1.000
    O256    O    0.54906   0.67831   0.46406   1.000
    O257    O    0.56535   0.71672   0.39921   1.000
    Zr258   Zr   0.44042   0.81676   0.58140   1.000
    O259    O    0.43467   0.78326   0.60075   1.000
    O260    O    0.41127   0.83601   0.59276   1.000
    O261    O    0.45096   0.82167   0.53593   1.000
    O262    O    0.46511   0.82549   0.59693   1.000
    Zr263   Zr   0.55960   0.18323   0.41858   1.000
    O264    O    0.56535   0.21673   0.39921   1.000
    O265    O    0.58875   0.16398   0.40723   1.000
    O266    O    0.53491   0.17450   0.40306   1.000
    O267    O    0.54905   0.17832   0.46406   1.000
    Zr268   Zr   0.81678   0.94040   0.08138   1.000
    O269    O    0.82551   0.96509   0.09688   1.000
    O270    O    0.78329   0.93464   0.10076   1.000
    O271    O    0.83603   0.91125   0.09273   1.000
    O272    O    0.82170   0.95094   0.03590   1.000
    Zr273   Zr   0.34123   0.53173   0.37426   1.000
    O274    O    0.30958   0.54755   0.37844   1.000
    O275    O    0.36307   0.55562   0.36997   1.000
    O276    O    0.35089   0.51876   0.33733   1.000
    O277    O    0.34200   0.50529   0.41080   1.000
    Zr278   Zr   0.84123   0.03173   0.37426   1.000
    O279    O    0.80958   0.04756   0.37844   1.000
    O280    O    0.86307   0.05562   0.36997   1.000
    O281    O    0.84200   0.00529   0.41080   1.000
    O282    O    0.85089   0.01877   0.33733   1.000
    Zr283   Zr   0.01678   0.90194   0.16700   1.000
    O284    O    0.00890   0.87826   0.14914   1.000
    O285    O    0.05018   0.90852   0.14868   1.000
    O286    O    0.99756   0.93144   0.15631   1.000
    O287    O    0.01106   0.89108   0.21252   1.000
loop_
    _geom_bond_atom_site_label_1
    _geom_bond_atom_site_label_2
    _geom_bond_distance
    _geom_bond_site_symmetry_2
    _ccdc_geom_bond_type
    Zr48   O49       0.65955      .   S
    N38    O49       2.44362      .   S
    Zr48   O50       0.65779      .   S
    N29    O50       2.50631      .   S
    Zr48   O51       0.65920      .   S
    N43    O51       2.49071  1_455   S
    Zr48   O52       0.65779      .   S
    N6     O52       2.52304  1_455   S
    Zr53   O54       0.65943      .   S
    N20    O54       2.49025      .   S
    Zr53   O55       0.65786      .   S
    N34    O55       2.52306  1_554   S
    Zr53   O56       0.65958      .   S
    N5     O56       2.44365      .   S
    Zr53   O57       0.65776      .   S
    N16    O57       2.50656      .   S
    Zr58   O59       0.65805      .   S
    N23    O59       2.51833  1_545   S
    Zr58   O60       0.66008      .   S
    N22    O60       2.47713      .   S
    Zr58   O61       0.65908      .   S
    N3     O61       2.49226      .   S
    Zr58   O62       0.65782      .   S
    N39    O62       2.50766      .   S
    Zr63   O64       0.65927      .   S
    N5     O64       2.46380      .   S
    Zr63   O65       0.66075      .   S
    N46    O65       2.52563      .   S
    Zr63   O66       0.65807      .   S
    N14    O66       2.50115      .   S
    Zr63   O67       0.65743      .   S
    N13    O67       2.54074      .   S
    Zr68   O69       0.65811      .   S
    N30    O69       2.50093      .   S
    Zr68   O70       0.66075      .   S
    N21    O70       2.52551      .   S
    Zr68   O71       0.65926      .   S
    N13    O71       2.46380      .   S
    Zr68   O72       0.65743      .   S
    N5     O72       2.54095      .   S
    Zr73   O74       0.65927      .   S
    N45    O74       2.46382      .   S
    Zr73   O75       0.66073  1_655   S
    N3     O75       2.52577  1_565   S
    Zr73   O76       0.65805      .   S
    N41    O76       2.50109  1_455   S
    Zr73   O77       0.65743      .   S
    N38    O77       2.54075      .   S
    Zr78   O79       0.65738      .   S
    N34    O79       2.54086      .   S
    Zr78   O80       0.66075      .   S
    N28    O80       2.52544  1_655   S
    Zr78   O81       0.65927      .   S
    N6     O81       2.46380      .   S
    Zr78   O82       0.65811      .   S
    N11    O82       2.50105      .   S
    Zr83   O84       0.65743      .   S
    N32    O84       2.54075      .   S
    Zr83   O85       0.66073  1_655   S
    N20    O85       2.52558      .   S
    Zr83   O86       0.65927      .   S
    N47    O86       2.46380      .   S
    Zr83   O87       0.65805      .   S
    N16    O87       2.50109  1_455   S
    Zr88   O89       0.65795      .   S
    N38    O89       2.52314  1_655   S
    Zr88   O90       0.65959      .   S
    N6     O90       2.44365      .   S
    Zr88   O91       0.65912      .   S
    N10    O91       2.49056  1_655   S
    Zr88   O92       0.65779      .   S
    N23    O92       2.50635      .   S
    Zr93   O94       0.65903      .   S
    N2     O94       2.49217      .   S
    Zr93   O95       0.66010      .   S
    N24    O95       2.47712      .   S
    Zr93   O96       0.65808      .   S
    N39    O96       2.51841  1_565   S
    Zr93   O97       0.65782      .   S
    N23    O97       2.50764      .   S
    Zr98   O99       0.65927      .   S
    N37    O99       2.46382      .   S
    Zr98   O100      0.66075      .   S
    N1     O100      2.52581  1_565   S
    Zr98   O101      0.65807      .   S
    N18    O101      2.50116      .   S
    Zr98   O102      0.65743      .   S
    N42    O102      2.54075      .   S
    Zr103  O104      0.66011      .   S
    N2     O104      2.47713      .   S
    Zr103  O105      0.65858      .   S
    N24    O105      2.49243      .   S
    Zr103  O106      0.65782      .   S
    N17    O106      2.50723      .   S
    Zr103  O107      0.65796      .   S
    N18    O107      2.51859  1_556   S
    Zr108  O109      0.65779      .   S
    N11    O109      2.50634      .   S
    Zr108  O110      0.65959      .   S
    N0     O110      2.44365      .   S
    Zr108  O111      0.65912      .   S
    N28    O111      2.49057  1_655   S
    Zr108  O112      0.65795      .   S
    N32    O112      2.52314  1_655   S
    Zr113  O114      0.65856      .   S
    N28    O114      2.49244      .   S
    Zr113  O115      0.65781      .   S
    N36    O115      2.50723      .   S
    Zr113  O116      0.66011      .   S
    N25    O116      2.47714      .   S
    Zr113  O117      0.65793      .   S
    N16    O117      2.51857  1_456   S
    Zr118  O119      0.66074  1_455   S
    N25    O119      2.52558      .   S
    Zr118  O120      0.65928      .   S
    N34    O120      2.46381      .   S
    Zr118  O121      0.65743      .   S
    N6     O121      2.54061      .   S
    Zr118  O122      0.65836      .   S
    N7     O122      2.50078  1_655   S
    Zr123  O124      0.65811      .   S
    N40    O124      2.50111  1_545   S
    Zr123  O125      0.65927      .   S
    N33    O125      2.46381      .   S
    Zr123  O126      0.65775      .   S
    N44    O126      2.54048      .   S
    Zr123  O127      0.66083  1_565   S
    N24    O127      2.52565      .   S
    Zr128  O129      0.66011      .   S
    N8     O129      2.47714      .   S
    Zr128  O130      0.65858      .   S
    N27    O130      2.49243      .   S
    Zr128  O131      0.65781      .   S
    N26    O131      2.50723      .   S
    Zr128  O132      0.65796      .   S
    N14    O132      2.51859  1_556   S
    Zr133  O134      0.65782      .   S
    N7     O134      2.50723      .   S
    Zr133  O135      0.65856      .   S
    N10    O135      2.49244      .   S
    Zr133  O136      0.66011      .   S
    N15    O136      2.47713      .   S
    Zr133  O137      0.65793      .   S
    N41    O137      2.51857  1_456   S
    Zr138  O139      0.65776      .   S
    N41    O139      2.50657      .   S
    Zr138  O140      0.65786      .   S
    N9     O140      2.52314  1_564   S
    Zr138  O141      0.65959      .   S
    N37    O141      2.44364      .   S
    Zr138  O142      0.65918      .   S
    N3     O142      2.49060  1_565   S
    Zr143  O144      0.65779      .   S
    N0     O144      2.52303  1_455   S
    Zr143  O145      0.65779      .   S
    N35    O145      2.50631      .   S
    Zr143  O146      0.65919      .   S
    N22    O146      2.49070  1_455   S
    Zr143  O147      0.65956      .   S
    N32    O147      2.44364      .   S
    Zr148  O149      0.65743      .   S
    N47    O149      2.54095      .   S
    Zr148  O150      0.66075      .   S
    N43    O150      2.52544  1_455   S
    Zr148  O151      0.65927      .   S
    N32    O151      2.46378      .   S
    Zr148  O152      0.65819      .   S
    N29    O152      2.50085      .   S
    Zr153  O154      0.65909      .   S
    N25    O154      2.49062      .   S
    Zr153  O155      0.65959      .   S
    N4     O155      2.44364      .   S
    Zr153  O156      0.65776      .   S
    N7     O156      2.50655      .   S
    Zr153  O157      0.65786      .   S
    N47    O157      2.52306  1_556   S
    Zr158  O159      0.65800      .   S
    N11    O159      2.51829      .   S
    Zr158  O160      0.65904      .   S
    N20    O160      2.49228      .   S
    Zr158  O161      0.66008      .   S
    N43    O161      2.47712      .   S
    Zr158  O162      0.65782      .   S
    N30    O162      2.50765      .   S
    Zr163  O164      0.65804      .   S
    N29    O164      2.51837      .   S
    Zr163  O165      0.65782      .   S
    N12    O165      2.50766      .   S
    Zr163  O166      0.65899      .   S
    N25    O166      2.49219      .   S
    Zr163  O167      0.66009      .   S
    N28    O167      2.47712      .   S
    Zr168  O169      0.65793      .   S
    N7     O169      2.51857  1_654   S
    Zr168  O170      0.65782      .   S
    N41    O170      2.50722      .   S
    Zr168  O171      0.65902      .   S
    N43    O171      2.49209      .   S
    Zr168  O172      0.65870      .   S
    N20    O172      2.47776      .   S
    Zr173  O174      0.65958      .   S
    N47    O174      2.44365      .   S
    Zr173  O175      0.65914      .   S
    N46    O175      2.49058      .   S
    Zr173  O176      0.65786      .   S
    N4     O176      2.52306  1_554   S
    Zr173  O177      0.65777      .   S
    N14    O177      2.50655      .   S
    Zr178  O179      0.65743      .   S
    N45    O179      2.54095      .   S
    Zr178  O180      0.65927      .   S
    N38    O180      2.46381      .   S
    Zr178  O181      0.66082  1_545   S
    N22    O181      2.52556  1_455   S
    Zr178  O182      0.65810      .   S
    N35    O182      2.50098  1_565   S
    Zr183  O184      0.65782      .   S
    N14    O184      2.50724      .   S
    Zr183  O185      0.65796      .   S
    N26    O185      2.51859  1_554   S
    Zr183  O186      0.65870      .   S
    N1     O186      2.47776      .   S
    Zr183  O187      0.65905      .   S
    N31    O187      2.49209      .   S
    Zr188  O189      0.65796      .   S
    N17    O189      2.51859  1_554   S
    Zr188  O190      0.65782      .   S
    N18    O190      2.50722      .   S
    Zr188  O191      0.65871      .   S
    N46    O191      2.47776      .   S
    Zr188  O192      0.65905      .   S
    N21    O192      2.49208      .   S
    Zr193  O194      0.66081  1_545   S
    N31    O194      2.52564      .   S
    Zr193  O195      0.65743      .   S
    N37    O195      2.54095      .   S
    Zr193  O196      0.65927      .   S
    N42    O196      2.46379      .   S
    Zr193  O197      0.65818      .   S
    N39    O197      2.50090  1_565   S
    Zr198  O199      0.65948      .   S
    N1     O199      2.49028  1_565   S
    Zr198  O200      0.65786      .   S
    N44    O200      2.52314  1_564   S
    Zr198  O201      0.65776      .   S
    N18    O201      2.50655      .   S
    Zr198  O202      0.65959      .   S
    N45    O202      2.44364      .   S
    Zr203  O204      0.65793      .   S
    N36    O204      2.51857  1_654   S
    Zr203  O205      0.65782      .   S
    N16    O205      2.50724      .   S
    Zr203  O206      0.65870      .   S
    N3     O206      2.47776      .   S
    Zr203  O207      0.65902      .   S
    N22    O207      2.49210      .   S
    Zr208  O209      0.65779      .   S
    N30    O209      2.50631      .   S
    Zr208  O210      0.65779      .   S
    N19    O210      2.52308      .   S
    Zr208  O211      0.65956      .   S
    N42    O211      2.44364      .   S
    Zr208  O212      0.65924      .   S
    N21    O212      2.49076      .   S
    Zr213  O214      0.66076      .   S
    N27    O214      2.52552      .   S
    Zr213  O215      0.65927      .   S
    N19    O215      2.46381      .   S
    Zr213  O216      0.65811      .   S
    N12    O216      2.50104      .   S
    Zr213  O217      0.65775      .   S
    N4     O217      2.54048      .   S
    Zr218  O219      0.65743      .   S
    N19    O219      2.54061      .   S
    Zr218  O220      0.65928      .   S
    N4     O220      2.46383      .   S
    Zr218  O221      0.65807      .   S
    N17    O221      2.50116      .   S
    Zr218  O222      0.66076      .   S
    N8     O222      2.52563      .   S
    Zr223  O224      0.65743      .   S
    N33    O224      2.54060      .   S
    Zr223  O225      0.65807      .   S
    N26    O225      2.50116      .   S
    Zr223  O226      0.66076      .   S
    N2     O226      2.52582  1_545   S
    Zr223  O227      0.65928      .   S
    N44    O227      2.46381      .   S
    Zr228  O229      0.65910      .   S
    N8     O229      2.49061      .   S
    Zr228  O230      0.65959      .   S
    N34    O230      2.44366      .   S
    Zr228  O231      0.65786      .   S
    N5     O231      2.52307  1_556   S
    Zr228  O232      0.65776      .   S
    N17    O232      2.50655      .   S
    Zr233  O234      0.65914      .   S
    N2     O234      2.49066  1_545   S
    Zr233  O235      0.65958      .   S
    N9     O235      2.44365      .   S
    Zr233  O236      0.65777      .   S
    N26    O236      2.50656      .   S
    Zr233  O237      0.65786      .   S
    N37    O237      2.52314  1_546   S
    Zr238  O239      0.65811      .   S
    N23    O239      2.50110  1_545   S
    Zr238  O240      0.65775      .   S
    N9     O240      2.54048      .   S
    Zr238  O241      0.65927      .   S
    N0     O241      2.46381      .   S
    Zr238  O242      0.66083  1_565   S
    N10    O242      2.52557  1_655   S
    Zr243  O244      0.65782      .   S
    N35    O244      2.50766      .   S
    Zr243  O245      0.65805      .   S
    N40    O245      2.51833  1_545   S
    Zr243  O246      0.65908      .   S
    N1     O246      2.49227      .   S
    Zr243  O247      0.66008      .   S
    N31    O247      2.47713      .   S
    Zr248  O249      0.65800      .   S
    N12    O249      2.51829      .   S
    Zr248  O250      0.66008      .   S
    N21    O250      2.47712      .   S
    Zr248  O251      0.65904      .   S
    N46    O251      2.49228      .   S
    Zr248  O252      0.65782      .   S
    N29    O252      2.50765      .   S
    Zr253  O254      0.65917      .   S
    N27    O254      2.49060      .   S
    Zr253  O255      0.65779      .   S
    N12    O255      2.50634      .   S
    Zr253  O256      0.65795      .   S
    N13    O256      2.52318      .   S
    Zr253  O257      0.65959      .   S
    N33    O257      2.44365      .   S
    Zr258  O259      0.65956      .   S
    N13    O259      2.44364      .   S
    Zr258  O260      0.65779      .   S
    N39    O260      2.50631      .   S
    Zr258  O261      0.65779      .   S
    N33    O261      2.52308      .   S
    Zr258  O262      0.65924      .   S
    N31    O262      2.49074      .   S
    Zr263  O264      0.65959      .   S
    N19    O264      2.44365      .   S
    Zr263  O265      0.65779      .   S
    N40    O265      2.50634      .   S
    Zr263  O266      0.65917      .   S
    N24    O266      2.49062      .   S
    Zr263  O267      0.65795      .   S
    N42    O267      2.52319      .   S
    Zr268  O269      0.65915      .   S
    N15    O269      2.49066  1_545   S
    Zr268  O270      0.65958      .   S
    N44    O270      2.44365      .   S
    Zr268  O271      0.65777      .   S
    N36    O271      2.50656      .   S
    Zr268  O272      0.65786      .   S
    N45    O272      2.52314  1_546   S
    Zr273  O274      0.65782      .   S
    N11    O274      2.50766      .   S
    Zr273  O275      0.66009      .   S
    N27    O275      2.47712      .   S
    Zr273  O276      0.65899      .   S
    N8     O276      2.49219      .   S
    Zr273  O277      0.65804      .   S
    N30    O277      2.51837      .   S
    Zr278  O279      0.65782      .   S
    N40    O279      2.50765      .   S
    Zr278  O280      0.66010      .   S
    N10    O280      2.47712      .   S
    Zr278  O281      0.65809      .   S
    N35    O281      2.51841  1_565   S
    Zr278  O282      0.65903      .   S
    N15    O282      2.49217      .   S
    Zr283  O284      0.65805      .   S
    N36    O284      2.50109  1_655   S
    Zr283  O285      0.65928      .   S
    N9     O285      2.46382      .   S
    Zr283  O286      0.66074  1_455   S
    N15    O286      2.52576  1_545   S
    Zr283  O287      0.65743      .   S
    N0     O287      2.54060      .   S
