# CIF file generated by openbabel 2.4.90, see http://openbabel.sf.net
data_I
_chemical_name_common ''
_cell_length_a 19.797
_cell_length_b 19.8
_cell_length_c 15.418
_cell_angle_alpha 74.151
_cell_angle_beta 74.164
_cell_angle_gamma 82.483
_space_group_name_H-M_alt 'P 1'
_space_group_name_Hall 'P 1'
loop_
    _symmetry_equiv_pos_as_xyz
    x,y,z
loop_
    _atom_site_label
    _atom_site_type_symbol
    _atom_site_fract_x
    _atom_site_fract_y
    _atom_site_fract_z
    _atom_site_occupancy
    Zr0     Zr   0.46826   0.15877   0.12571   1.000
    Zr1     Zr   0.46826   0.65877   0.12571   1.000
    Zr2     Zr   0.96827   0.15877   0.12571   1.000
    Zr3     Zr   0.96827   0.65877   0.12571   1.000
    Zr4     Zr   0.31678   0.44041   0.08138   1.000
    Zr5     Zr   0.31678   0.94040   0.08138   1.000
    Zr6     Zr   0.81678   0.44041   0.08138   1.000
    Zr7     Zr   0.81678   0.94040   0.08138   1.000
    Zr8     Zr   0.01677   0.40195   0.16700   1.000
    Zr9     Zr   0.01678   0.90194   0.16700   1.000
    Zr10    Zr   0.51678   0.40195   0.16700   1.000
    Zr11    Zr   0.51678   0.90194   0.16700   1.000
    Zr12    Zr   0.34123   0.03173   0.37426   1.000
    Zr13    Zr   0.34123   0.53173   0.37426   1.000
    Zr14    Zr   0.84123   0.03173   0.37426   1.000
    Zr15    Zr   0.84124   0.53173   0.37426   1.000
    Zr16    Zr   0.05959   0.18323   0.41858   1.000
    Zr17    Zr   0.05960   0.68323   0.41858   1.000
    Zr18    Zr   0.55960   0.18323   0.41858   1.000
    Zr19    Zr   0.55960   0.68323   0.41858   1.000
    Zr20    Zr   0.09805   0.48320   0.33304   1.000
    Zr21    Zr   0.09805   0.98320   0.33304   1.000
    Zr22    Zr   0.59805   0.48320   0.33304   1.000
    Zr23    Zr   0.59805   0.98320   0.33304   1.000
    Zr24    Zr   0.03175   0.34122   0.87430   1.000
    Zr25    Zr   0.03175   0.84122   0.87430   1.000
    Zr26    Zr   0.53175   0.34122   0.87430   1.000
    Zr27    Zr   0.53175   0.84122   0.87430   1.000
    Zr28    Zr   0.18323   0.05959   0.91863   1.000
    Zr29    Zr   0.18323   0.55958   0.91863   1.000
    Zr30    Zr   0.68323   0.05959   0.91863   1.000
    Zr31    Zr   0.68324   0.55958   0.91863   1.000
    Zr32    Zr   0.48323   0.09805   0.83301   1.000
    Zr33    Zr   0.48324   0.59805   0.83301   1.000
    Zr34    Zr   0.98324   0.09805   0.83301   1.000
    Zr35    Zr   0.98324   0.59805   0.83301   1.000
    Zr36    Zr   0.15878   0.46826   0.62574   1.000
    Zr37    Zr   0.15878   0.96826   0.62574   1.000
    Zr38    Zr   0.65878   0.46826   0.62574   1.000
    Zr39    Zr   0.65878   0.96826   0.62574   1.000
    Zr40    Zr   0.44042   0.31677   0.58140   1.000
    Zr41    Zr   0.44042   0.81676   0.58140   1.000
    Zr42    Zr   0.94042   0.31677   0.58140   1.000
    Zr43    Zr   0.94042   0.81676   0.58140   1.000
    Zr44    Zr   0.40196   0.01679   0.66696   1.000
    Zr45    Zr   0.40197   0.51679   0.66696   1.000
    Zr46    Zr   0.90197   0.01679   0.66696   1.000
    Zr47    Zr   0.90197   0.51679   0.66696   1.000
    N48     N    0.03157   0.84242   0.37433   1.000
    O49     O    0.96151   0.82659   0.49046   1.000
    O50     O    0.07110   0.75022   0.37984   1.000
    O51     O    0.00534   0.88022   0.25804   1.000
    O52     O    0.08489   0.91639   0.36969   1.000
    N53     N    0.60571   0.97906   0.83106   1.000
    O54     O    0.57952   0.88488   0.86508   1.000
    O55     O    0.63947   0.99419   0.69962   1.000
    O56     O    0.66578   0.01021   0.88756   1.000
    O57     O    0.52167   0.03905   0.85438   1.000
    N58     N    0.39431   0.02094   0.16895   1.000
    O59     O    0.36054   0.00580   0.30039   1.000
    O60     O    0.33424   0.98978   0.11239   1.000
    O61     O    0.42049   0.11511   0.13426   1.000
    O62     O    0.47834   0.96094   0.14563   1.000
    N63     N    0.10570   0.97906   0.83106   1.000
    O64     O    0.16577   0.01021   0.88762   1.000
    O65     O    0.02167   0.03905   0.85438   1.000
    O66     O    0.07952   0.88488   0.86508   1.000
    O67     O    0.13947   0.99419   0.69962   1.000
    N68     N    0.65757   0.46842   0.12571   1.000
    O69     O    0.61979   0.49461   0.24196   1.000
    O70     O    0.67339   0.53850   0.00958   1.000
    O71     O    0.74979   0.42889   0.12015   1.000
    O72     O    0.58359   0.41511   0.13036   1.000
    N73     N    0.34244   0.53158   0.87430   1.000
    O74     O    0.32662   0.46149   0.99043   1.000
    O75     O    0.41642   0.58488   0.86965   1.000
    O76     O    0.38022   0.50538   0.75800   1.000
    O77     O    0.25023   0.57110   0.87986   1.000
    N78     N    0.03157   0.34243   0.37433   1.000
    O79     O    0.08488   0.41639   0.36969   1.000
    O80     O    0.00534   0.38022   0.25804   1.000
    O81     O    0.07110   0.25023   0.37984   1.000
    O82     O    0.96150   0.32659   0.49046   1.000
    N83     N    0.93816   0.32215   0.07900   1.000
    O84     O    0.97890   0.34266   0.94739   1.000
    O85     O    0.00102   0.35459   0.13123   1.000
    O86     O    0.85528   0.38210   0.10408   1.000
    O87     O    0.93659   0.22207   0.11748   1.000
    N88     N    0.39431   0.52093   0.16895   1.000
    O89     O    0.33424   0.48978   0.11239   1.000
    O90     O    0.42049   0.61510   0.13426   1.000
    O91     O    0.36054   0.50580   0.30039   1.000
    O92     O    0.47834   0.46095   0.14563   1.000
    N93     N    0.15757   0.96841   0.12571   1.000
    O94     O    0.08359   0.91510   0.13036   1.000
    O95     O    0.17339   0.03851   0.00958   1.000
    O96     O    0.24979   0.92889   0.12015   1.000
    O97     O    0.11979   0.99461   0.24196   1.000
    N98     N    0.97908   0.10568   0.33101   1.000
    O99     O    0.01022   0.16577   0.38755   1.000
    O100    O    0.99422   0.13942   0.19950   1.000
    O101    O    0.88490   0.07951   0.36567   1.000
    O102    O    0.03905   0.02165   0.35441   1.000
    N103    N    0.17782   0.56183   0.42105   1.000
    O104    O    0.11790   0.64473   0.39587   1.000
    O105    O    0.14541   0.49897   0.36877   1.000
    O106    O    0.15725   0.52113   0.55268   1.000
    O107    O    0.27792   0.56338   0.38262   1.000
    N108    N    0.67782   0.56183   0.42105   1.000
    O109    O    0.65726   0.52113   0.55268   1.000
    O110    O    0.77792   0.56338   0.38262   1.000
    O111    O    0.64541   0.49897   0.36877   1.000
    O112    O    0.61790   0.64473   0.39587   1.000
    N113    N    0.46844   0.65757   0.62567   1.000
    O114    O    0.41513   0.58360   0.63032   1.000
    O115    O    0.49467   0.61977   0.74197   1.000
    O116    O    0.53852   0.67340   0.50954   1.000
    O117    O    0.42892   0.74976   0.62010   1.000
    N118    N    0.56186   0.67785   0.92101   1.000
    O119    O    0.52112   0.65733   0.05262   1.000
    O120    O    0.56342   0.77792   0.88254   1.000
    O121    O    0.49900   0.64540   0.86873   1.000
    O122    O    0.64474   0.61789   0.89594   1.000
    N123    N    0.89431   0.02094   0.16895   1.000
    O124    O    0.97834   0.96094   0.14563   1.000
    O125    O    0.86055   0.00580   0.30039   1.000
    O126    O    0.83424   0.98978   0.11239   1.000
    O127    O    0.92049   0.11511   0.13426   1.000
    N128    N    0.06185   0.67785   0.92101   1.000
    O129    O    0.14474   0.61789   0.89594   1.000
    O130    O    0.99900   0.64540   0.86873   1.000
    O131    O    0.06342   0.77792   0.88254   1.000
    O132    O    0.02111   0.65733   0.05262   1.000
    N133    N    0.43816   0.32215   0.07900   1.000
    O134    O    0.50102   0.35459   0.13129   1.000
    O135    O    0.47890   0.34266   0.94739   1.000
    O136    O    0.35527   0.38210   0.10408   1.000
    O137    O    0.43659   0.22207   0.11748   1.000
    N138    N    0.56186   0.17785   0.92101   1.000
    O139    O    0.49899   0.14541   0.86873   1.000
    O140    O    0.64474   0.11789   0.89594   1.000
    O141    O    0.52111   0.15733   0.05262   1.000
    O142    O    0.56342   0.27792   0.88254   1.000
    N143    N    0.53157   0.34243   0.37433   1.000
    O144    O    0.46150   0.32659   0.49046   1.000
    O145    O    0.50534   0.38022   0.25804   1.000
    O146    O    0.58489   0.41639   0.36969   1.000
    O147    O    0.57110   0.25023   0.37984   1.000
    N148    N    0.10570   0.47906   0.83106   1.000
    O149    O    0.02168   0.53904   0.85438   1.000
    O150    O    0.16577   0.51021   0.88756   1.000
    O151    O    0.07952   0.38489   0.86508   1.000
    O152    O    0.13947   0.49419   0.69962   1.000
    N153    N    0.52093   0.39431   0.66899   1.000
    O154    O    0.61511   0.42049   0.63434   1.000
    O155    O    0.50579   0.36058   0.80044   1.000
    O156    O    0.46096   0.47834   0.64560   1.000
    O157    O    0.48979   0.33423   0.61245   1.000
    N158    N    0.02093   0.89431   0.66899   1.000
    O159    O    0.11511   0.92048   0.63434   1.000
    O160    O    0.96096   0.97834   0.64560   1.000
    O161    O    0.00579   0.86057   0.80044   1.000
    O162    O    0.98979   0.83422   0.61245   1.000
    N163    N    0.17782   0.06184   0.42105   1.000
    O164    O    0.15725   0.02113   0.55268   1.000
    O165    O    0.14540   0.99897   0.36877   1.000
    O166    O    0.27791   0.06338   0.38262   1.000
    O167    O    0.11789   0.14473   0.39587   1.000
    N168    N    0.47908   0.10568   0.33101   1.000
    O169    O    0.38490   0.07951   0.36567   1.000
    O170    O    0.51022   0.16577   0.38755   1.000
    O171    O    0.49423   0.13942   0.19950   1.000
    O172    O    0.53905   0.02165   0.35441   1.000
    N173    N    0.89431   0.52093   0.16895   1.000
    O174    O    0.92050   0.61510   0.13426   1.000
    O175    O    0.86054   0.50580   0.30039   1.000
    O176    O    0.97834   0.46095   0.14563   1.000
    O177    O    0.83424   0.48978   0.11239   1.000
    N178    N    0.43816   0.82214   0.07900   1.000
    O179    O    0.47890   0.84266   0.94739   1.000
    O180    O    0.35528   0.88210   0.10408   1.000
    O181    O    0.43659   0.72207   0.11748   1.000
    O182    O    0.50102   0.85458   0.13129   1.000
    N183    N    0.47908   0.60568   0.33101   1.000
    O184    O    0.51023   0.66576   0.38755   1.000
    O185    O    0.49423   0.63941   0.19950   1.000
    O186    O    0.38490   0.57951   0.36567   1.000
    O187    O    0.53905   0.52165   0.35441   1.000
    N188    N    0.97909   0.60568   0.33101   1.000
    O189    O    0.99423   0.63941   0.19950   1.000
    O190    O    0.03905   0.52165   0.35441   1.000
    O191    O    0.88490   0.57951   0.36567   1.000
    O192    O    0.01023   0.66576   0.38755   1.000
    N193    N    0.82219   0.43816   0.57896   1.000
    O194    O    0.84276   0.47886   0.44733   1.000
    O195    O    0.88212   0.35526   0.60411   1.000
    O196    O    0.85461   0.50102   0.63122   1.000
    O197    O    0.72210   0.43661   0.61739   1.000
    N198    N    0.32219   0.43816   0.57896   1.000
    O199    O    0.35461   0.50102   0.63123   1.000
    O200    O    0.34276   0.47886   0.44733   1.000
    O201    O    0.38212   0.35526   0.60411   1.000
    O202    O    0.22209   0.43661   0.61739   1.000
    N203    N    0.52093   0.89431   0.66899   1.000
    O204    O    0.48979   0.83422   0.61245   1.000
    O205    O    0.46096   0.97834   0.64560   1.000
    O206    O    0.61512   0.92048   0.63434   1.000
    O207    O    0.50579   0.86057   0.80044   1.000
    N208    N    0.96845   0.65757   0.62567   1.000
    O209    O    0.03851   0.67340   0.50954   1.000
    O210    O    0.91513   0.58360   0.63032   1.000
    O211    O    0.99467   0.61977   0.74197   1.000
    O212    O    0.92892   0.74976   0.62010   1.000
    N213    N    0.53157   0.84242   0.37433   1.000
    O214    O    0.46150   0.82659   0.49046   1.000
    O215    O    0.50535   0.88022   0.25804   1.000
    O216    O    0.58489   0.91639   0.36969   1.000
    O217    O    0.57110   0.75022   0.37984   1.000
    N218    N    0.15757   0.46842   0.12571   1.000
    O219    O    0.24979   0.42889   0.12015   1.000
    O220    O    0.11979   0.49461   0.24201   1.000
    O221    O    0.17339   0.53850   0.00958   1.000
    O222    O    0.08359   0.41511   0.13036   1.000
    N223    N    0.82220   0.93815   0.57896   1.000
    O224    O    0.88212   0.85526   0.60411   1.000
    O225    O    0.84276   0.97886   0.44733   1.000
    O226    O    0.72210   0.93661   0.61739   1.000
    O227    O    0.85461   0.00102   0.63123   1.000
    N228    N    0.93816   0.82214   0.07900   1.000
    O229    O    0.85528   0.88210   0.10408   1.000
    O230    O    0.00102   0.85458   0.13129   1.000
    O231    O    0.93660   0.72207   0.11748   1.000
    O232    O    0.97890   0.84266   0.94739   1.000
    N233    N    0.34244   0.03158   0.87430   1.000
    O234    O    0.38022   0.00538   0.75800   1.000
    O235    O    0.25022   0.07110   0.87986   1.000
    O236    O    0.41642   0.08489   0.86965   1.000
    O237    O    0.32662   0.96148   0.99043   1.000
    N238    N    0.96844   0.15757   0.62567   1.000
    O239    O    0.99467   0.11977   0.74197   1.000
    O240    O    0.03851   0.17340   0.50954   1.000
    O241    O    0.92892   0.24977   0.62010   1.000
    O242    O    0.91513   0.08360   0.63032   1.000
    N243    N    0.32219   0.93815   0.57896   1.000
    O244    O    0.38212   0.85526   0.60411   1.000
    O245    O    0.34276   0.97886   0.44733   1.000
    O246    O    0.35461   0.00102   0.63122   1.000
    O247    O    0.22210   0.93661   0.61739   1.000
    N248    N    0.67782   0.06184   0.42105   1.000
    O249    O    0.64541   0.99897   0.36877   1.000
    O250    O    0.61790   0.14473   0.39587   1.000
    O251    O    0.65725   0.02113   0.55268   1.000
    O252    O    0.77792   0.06338   0.38262   1.000
    N253    N    0.06185   0.17785   0.92101   1.000
    O254    O    0.99899   0.14541   0.86873   1.000
    O255    O    0.06342   0.27792   0.88254   1.000
    O256    O    0.14474   0.11789   0.89594   1.000
    O257    O    0.02111   0.15733   0.05262   1.000
    N258    N    0.46844   0.15757   0.62567   1.000
    O259    O    0.41512   0.08360   0.63032   1.000
    O260    O    0.49467   0.11977   0.74197   1.000
    O261    O    0.42891   0.24977   0.62010   1.000
    O262    O    0.53851   0.17340   0.50954   1.000
    N263    N    0.02093   0.39431   0.66899   1.000
    O264    O    0.96096   0.47834   0.64560   1.000
    O265    O    0.98979   0.33423   0.61245   1.000
    O266    O    0.11511   0.42049   0.63434   1.000
    O267    O    0.00579   0.36058   0.80044   1.000
    N268    N    0.65757   0.96841   0.12571   1.000
    O269    O    0.67339   0.03851   0.00958   1.000
    O270    O    0.74979   0.92889   0.12015   1.000
    O271    O    0.58359   0.91510   0.13036   1.000
    O272    O    0.61979   0.99461   0.24196   1.000
    N273    N    0.84244   0.03158   0.87430   1.000
    O274    O    0.75023   0.07110   0.87986   1.000
    O275    O    0.91642   0.08489   0.86965   1.000
    O276    O    0.82663   0.96148   0.99043   1.000
    O277    O    0.88022   0.00538   0.75800   1.000
    N278    N    0.60570   0.47906   0.83106   1.000
    O279    O    0.57952   0.38489   0.86508   1.000
    O280    O    0.66578   0.51021   0.88762   1.000
    O281    O    0.52168   0.53904   0.85438   1.000
    O282    O    0.63947   0.49419   0.69962   1.000
    N283    N    0.84245   0.53158   0.87430   1.000
    O284    O    0.91643   0.58488   0.86965   1.000
    O285    O    0.75023   0.57110   0.87986   1.000
    O286    O    0.88023   0.50538   0.75800   1.000
    O287    O    0.82662   0.46149   0.99043   1.000
loop_
    _geom_bond_atom_site_label_1
    _geom_bond_atom_site_label_2
    _geom_bond_distance
    _geom_bond_site_symmetry_2
    _ccdc_geom_bond_type
    N48    O49       1.91832  1_455   S
    Zr43   O49       1.31557      .   S
    N48    O50       1.87881      .   S
    Zr17   O50       1.31919      .   S
    N48    O51       1.92816      .   S
    Zr9    O51       1.31487      .   S
    N48    O52       1.88945      .   S
    Zr21   O52       1.31854      .   S
    N53    O54       1.89495      .   S
    Zr27   O54       1.31740      .   S
    N53    O55       1.90398      .   S
    Zr39   O55       1.31817      .   S
    N53    O56       1.89849  1_565   S
    Zr30   O56       1.31896      .   S
    N53    O57       1.92292  1_565   S
    Zr32   O57       1.32151      .   S
    N58    O59       1.90394      .   S
    Zr12   O59       1.31807      .   S
    N58    O60       1.89924  1_545   S
    Zr5    O60       1.31828      .   S
    N58    O61       1.89429      .   S
    Zr0    O61       1.32023      .   S
    N58    O62       1.92295  1_545   S
    Zr11   O62       1.32153      .   S
    N63    O64       1.89915  1_565   S
    Zr28   O64       1.31836      .   S
    N63    O65       1.92291  1_565   S
    Zr34   O65       1.32146  1_655   S
    N63    O66       1.89496      .   S
    Zr25   O66       1.31740      .   S
    N63    O67       1.90398      .   S
    Zr37   O67       1.31817      .   S
    N68    O69       1.92761      .   S
    Zr22   O69       1.31550      .   S
    N68    O70       1.91838      .   S
    Zr31   O70       1.31571  1_556   S
    N68    O71       1.87882      .   S
    Zr6    O71       1.31918      .   S
    N68    O72       1.88947      .   S
    Zr10   O72       1.31855      .   S
    N73    O74       1.91839      .   S
    Zr4    O74       1.31571  1_554   S
    N73    O75       1.88941      .   S
    Zr33   O75       1.31854      .   S
    N73    O76       1.92837      .   S
    Zr45   O76       1.31486      .   S
    N73    O77       1.87883      .   S
    Zr29   O77       1.31916      .   S
    N78    O79       1.88945      .   S
    Zr20   O79       1.31853      .   S
    N78    O80       1.92817      .   S
    Zr8    O80       1.31487      .   S
    N78    O81       1.87881      .   S
    Zr16   O81       1.31919      .   S
    N78    O82       1.91833  1_455   S
    Zr42   O82       1.31557      .   S
    N83    O84       1.91715  1_554   S
    Zr24   O84       1.31586  1_455   S
    N83    O85       1.91001  1_655   S
    Zr8    O85       1.31672      .   S
    N83    O86       1.90944      .   S
    Zr6    O86       1.31553      .   S
    N83    O87       1.90868      .   S
    Zr2    O87       1.31564      .   S
    N88    O89       1.89922      .   S
    Zr4    O89       1.31819      .   S
    N88    O90       1.89429      .   S
    Zr1    O90       1.32022      .   S
    N88    O91       1.90396      .   S
    Zr13   O91       1.31798      .   S
    N88    O92       1.92277      .   S
    Zr10   O92       1.32153      .   S
    N93    O94       1.88946      .   S
    Zr9    O94       1.31856      .   S
    N93    O95       1.91847  1_565   S
    Zr28   O95       1.31571  1_556   S
    N93    O96       1.87883      .   S
    Zr5    O96       1.31916      .   S
    N93    O97       1.92761      .   S
    Zr21   O97       1.31550      .   S
    N98    O99       1.89914  1_655   S
    Zr16   O99       1.31825      .   S
    N98    O100      1.90475      .   S
    Zr2    O100      1.31711      .   S
    N98    O101      1.89430      .   S
    Zr14   O101      1.32020      .   S
    N98    O102      1.92272  1_655   S
    Zr21   O102      1.32165  1_565   S
    N103   O104      1.90939      .   S
    Zr17   O104      1.31559      .   S
    N103   O105      1.91056      .   S
    Zr20   O105      1.31622      .   S
    N103   O106      1.91711      .   S
    Zr36   O106      1.31601      .   S
    N103   O107      1.90892      .   S
    Zr13   O107      1.31565      .   S
    N108   O109      1.91711      .   S
    Zr38   O109      1.31600      .   S
    N108   O110      1.90892      .   S
    Zr15   O110      1.31565      .   S
    N108   O111      1.91056      .   S
    Zr22   O111      1.31621      .   S
    N108   O112      1.90939      .   S
    Zr19   O112      1.31559      .   S
    N113   O114      1.88942      .   S
    Zr45   O114      1.31852      .   S
    N113   O115      1.92829      .   S
    Zr33   O115      1.31487      .   S
    N113   O116      1.91836      .   S
    Zr19   O116      1.31590      .   S
    N113   O117      1.87874      .   S
    Zr41   O117      1.31911      .   S
    N118   O119      1.91715  1_556   S
    Zr1    O119      1.31592      .   S
    N118   O120      1.90868      .   S
    Zr27   O120      1.31564      .   S
    N118   O121      1.91066      .   S
    Zr33   O121      1.31613      .   S
    N118   O122      1.90943      .   S
    Zr31   O122      1.31553      .   S
    N123   O124      1.92292  1_545   S
    Zr9    O124      1.32147  1_455   S
    N123   O125      1.90394      .   S
    Zr14   O125      1.31807      .   S
    N123   O126      1.89923  1_545   S
    Zr7    O126      1.31829      .   S
    N123   O127      1.89429      .   S
    Zr2    O127      1.32023      .   S
    N128   O129      1.90944      .   S
    Zr29   O129      1.31552      .   S
    N128   O130      1.91063  1_455   S
    Zr35   O130      1.31610      .   S
    N128   O131      1.90868      .   S
    Zr25   O131      1.31564      .   S
    N128   O132      1.91715  1_556   S
    Zr3    O132      1.31586  1_655   S
    N133   O134      1.91068      .   S
    Zr10   O134      1.31613      .   S
    N133   O135      1.91715  1_554   S
    Zr26   O135      1.31591      .   S
    N133   O136      1.90944      .   S
    Zr4    O136      1.31553      .   S
    N133   O137      1.90868      .   S
    Zr0    O137      1.31564      .   S
    N138   O139      1.91068      .   S
    Zr32   O139      1.31613      .   S
    N138   O140      1.90944      .   S
    Zr30   O140      1.31553      .   S
    N138   O141      1.91715  1_556   S
    Zr0    O141      1.31591      .   S
    N138   O142      1.90867      .   S
    Zr26   O142      1.31565      .   S
    N143   O144      1.91839      .   S
    Zr40   O144      1.31557      .   S
    N143   O145      1.92817      .   S
    Zr10   O145      1.31487      .   S
    N143   O146      1.88945      .   S
    Zr22   O146      1.31854      .   S
    N143   O147      1.87881      .   S
    Zr18   O147      1.31918      .   S
    N148   O149      1.92273      .   S
    Zr35   O149      1.32146  1_655   S
    N148   O150      1.89848      .   S
    Zr29   O150      1.31886      .   S
    N148   O151      1.89496      .   S
    Zr24   O151      1.31740      .   S
    N148   O152      1.90400      .   S
    Zr36   O152      1.31808      .   S
    N153   O154      1.89431      .   S
    Zr38   O154      1.32017      .   S
    N153   O155      1.90392      .   S
    Zr26   O155      1.31809      .   S
    N153   O156      1.92271      .   S
    Zr45   O156      1.32150      .   S
    N153   O157      1.89923      .   S
    Zr40   O157      1.31848      .   S
    N158   O159      1.89432      .   S
    Zr37   O159      1.32016      .   S
    N158   O160      1.92269  1_455   S
    Zr46   O160      1.32163  1_545   S
    N158   O161      1.90393      .   S
    Zr25   O161      1.31804      .   S
    N158   O162      1.89921  1_455   S
    Zr43   O162      1.31839      .   S
    N163   O164      1.91712      .   S
    Zr37   O164      1.31609  1_565   S
    N163   O165      1.91059  1_545   S
    Zr21   O165      1.31623      .   S
    N163   O166      1.90890      .   S
    Zr12   O166      1.31565      .   S
    N163   O167      1.90940      .   S
    Zr16   O167      1.31559      .   S
    N168   O169      1.89430      .   S
    Zr12   O169      1.32020      .   S
    N168   O170      1.89917      .   S
    Zr18   O170      1.31833      .   S
    N168   O171      1.90474      .   S
    Zr0    O171      1.31716      .   S
    N168   O172      1.92278      .   S
    Zr23   O172      1.32165  1_565   S
    N173   O174      1.89429      .   S
    Zr3    O174      1.32022      .   S
    N173   O175      1.90396      .   S
    Zr15   O175      1.31798      .   S
    N173   O176      1.92275      .   S
    Zr8    O176      1.32148  1_455   S
    N173   O177      1.89923      .   S
    Zr6    O177      1.31818      .   S
    N178   O179      1.91715  1_554   S
    Zr27   O179      1.31592      .   S
    N178   O180      1.90944      .   S
    Zr5    O180      1.31553      .   S
    N178   O181      1.90868      .   S
    Zr1    O181      1.31563      .   S
    N178   O182      1.91066      .   S
    Zr11   O182      1.31614      .   S
    N183   O184      1.89915      .   S
    Zr19   O184      1.31834      .   S
    N183   O185      1.90475      .   S
    Zr1    O185      1.31716      .   S
    N183   O186      1.89431      .   S
    Zr13   O186      1.32019      .   S
    N183   O187      1.92273      .   S
    Zr22   O187      1.32152      .   S
    N188   O189      1.90475      .   S
    Zr3    O189      1.31711      .   S
    N188   O190      1.92266  1_655   S
    Zr20   O190      1.32151      .   S
    N188   O191      1.89431      .   S
    Zr15   O191      1.32019      .   S
    N188   O192      1.89915  1_655   S
    Zr17   O192      1.31824      .   S
    N193   O194      1.91714      .   S
    Zr15   O194      1.31607      .   S
    N193   O195      1.90932      .   S
    Zr42   O195      1.31559      .   S
    N193   O196      1.91029      .   S
    Zr47   O196      1.31637      .   S
    N193   O197      1.90892      .   S
    Zr38   O197      1.31564      .   S
    N198   O199      1.91045      .   S
    Zr45   O199      1.31622      .   S
    N198   O200      1.91714      .   S
    Zr13   O200      1.31607      .   S
    N198   O201      1.90932      .   S
    Zr40   O201      1.31559      .   S
    N198   O202      1.90892      .   S
    Zr36   O202      1.31564      .   S
    N203   O204      1.89920      .   S
    Zr41   O204      1.31849      .   S
    N203   O205      1.92277      .   S
    Zr44   O205      1.32162  1_545   S
    N203   O206      1.89432      .   S
    Zr39   O206      1.32016      .   S
    N203   O207      1.90392      .   S
    Zr27   O207      1.31809      .   S
    N208   O209      1.91831  1_655   S
    Zr17   O209      1.31590      .   S
    N208   O210      1.88940      .   S
    Zr47   O210      1.31853      .   S
    N208   O211      1.92830      .   S
    Zr35   O211      1.31487      .   S
    N208   O212      1.87873      .   S
    Zr43   O212      1.31911      .   S
    N213   O214      1.91839      .   S
    Zr41   O214      1.31557      .   S
    N213   O215      1.92816      .   S
    Zr11   O215      1.31487      .   S
    N213   O216      1.88945      .   S
    Zr23   O216      1.31854      .   S
    N213   O217      1.87881      .   S
    Zr19   O217      1.31919      .   S
    N218   O219      1.87883      .   S
    Zr4    O219      1.31918      .   S
    N218   O220      1.92833      .   S
    Zr20   O220      1.31475      .   S
    N218   O221      1.91838      .   S
    Zr29   O221      1.31571  1_556   S
    N218   O222      1.88945      .   S
    Zr8    O222      1.31855      .   S
    N223   O224      1.90932      .   S
    Zr43   O224      1.31559      .   S
    N223   O225      1.91715      .   S
    Zr14   O225      1.31618  1_545   S
    N223   O226      1.90892      .   S
    Zr39   O226      1.31565      .   S
    N223   O227      1.91047  1_565   S
    Zr46   O227      1.31621      .   S
    N228   O229      1.90944      .   S
    Zr7    O229      1.31553      .   S
    N228   O230      1.91064  1_655   S
    Zr9    O230      1.31609      .   S
    N228   O231      1.90868      .   S
    Zr3    O231      1.31563      .   S
    N228   O232      1.91714  1_554   S
    Zr25   O232      1.31586  1_455   S
    N233   O234      1.92837      .   S
    Zr44   O234      1.31486      .   S
    N233   O235      1.87882      .   S
    Zr28   O235      1.31918      .   S
    N233   O236      1.88943      .   S
    Zr32   O236      1.31854      .   S
    N233   O237      1.91847  1_545   S
    Zr5    O237      1.31571  1_554   S
    N238   O239      1.92831      .   S
    Zr34   O239      1.31487      .   S
    N238   O240      1.91831  1_655   S
    Zr16   O240      1.31590      .   S
    N238   O241      1.87872      .   S
    Zr42   O241      1.31911      .   S
    N238   O242      1.88942      .   S
    Zr46   O242      1.31854      .   S
    N243   O244      1.90932      .   S
    Zr41   O244      1.31559      .   S
    N243   O245      1.91715      .   S
    Zr12   O245      1.31617  1_545   S
    N243   O246      1.91031  1_565   S
    Zr44   O246      1.31636      .   S
    N243   O247      1.90892      .   S
    Zr37   O247      1.31565      .   S
    N248   O249      1.91059  1_545   S
    Zr23   O249      1.31621      .   S
    N248   O250      1.90939      .   S
    Zr18   O250      1.31559      .   S
    N248   O251      1.91712      .   S
    Zr39   O251      1.31609  1_565   S
    N248   O252      1.90892      .   S
    Zr14   O252      1.31563      .   S
    N253   O254      1.91064  1_455   S
    Zr34   O254      1.31609      .   S
    N253   O255      1.90867      .   S
    Zr24   O255      1.31564      .   S
    N253   O256      1.90945      .   S
    Zr28   O256      1.31553      .   S
    N253   O257      1.91714  1_556   S
    Zr2    O257      1.31586  1_655   S
    N258   O259      1.88940      .   S
    Zr44   O259      1.31854      .   S
    N258   O260      1.92830      .   S
    Zr32   O260      1.31487      .   S
    N258   O261      1.87874      .   S
    Zr40   O261      1.31911      .   S
    N258   O262      1.91837      .   S
    Zr18   O262      1.31590      .   S
    N263   O264      1.92265  1_455   S
    Zr47   O264      1.32149      .   S
    N263   O265      1.89920  1_455   S
    Zr42   O265      1.31841      .   S
    N263   O266      1.89431      .   S
    Zr36   O266      1.32017      .   S
    N263   O267      1.90393      .   S
    Zr24   O267      1.31804      .   S
    N268   O269      1.91847  1_565   S
    Zr30   O269      1.31571  1_556   S
    N268   O270      1.87883      .   S
    Zr7    O270      1.31916      .   S
    N268   O271      1.88945      .   S
    Zr11   O271      1.31855      .   S
    N268   O272      1.92761      .   S
    Zr23   O272      1.31550      .   S
    N273   O274      1.87882      .   S
    Zr30   O274      1.31918      .   S
    N273   O275      1.88943      .   S
    Zr34   O275      1.31854      .   S
    N273   O276      1.91848  1_545   S
    Zr7    O276      1.31571  1_554   S
    N273   O277      1.92837      .   S
    Zr46   O277      1.31486      .   S
    N278   O279      1.89495      .   S
    Zr26   O279      1.31741      .   S
    N278   O280      1.89914      .   S
    Zr31   O280      1.31827      .   S
    N278   O281      1.92275      .   S
    Zr33   O281      1.32151      .   S
    N278   O282      1.90400      .   S
    Zr38   O282      1.31808      .   S
    N283   O284      1.88941      .   S
    Zr35   O284      1.31854      .   S
    N283   O285      1.87883      .   S
    Zr31   O285      1.31916      .   S
    N283   O286      1.92837      .   S
    Zr47   O286      1.31486      .   S
    N283   O287      1.91838      .   S
    Zr6    O287      1.31571  1_554   S
