# CIF file generated by openbabel 2.4.90, see http://openbabel.sf.net
data_I
_chemical_name_common ''
_cell_length_a 19.797
_cell_length_b 19.8
_cell_length_c 15.418
_cell_angle_alpha 74.151
_cell_angle_beta 74.164
_cell_angle_gamma 82.483
_space_group_name_H-M_alt 'P 1'
_space_group_name_Hall 'P 1'
loop_
    _symmetry_equiv_pos_as_xyz
    x,y,z
loop_
    _atom_site_label
    _atom_site_type_symbol
    _atom_site_fract_x
    _atom_site_fract_y
    _atom_site_fract_z
    _atom_site_occupancy
    C0      C    0.46826   0.15877   0.12571   1.000
    C1      C    0.46826   0.65877   0.12571   1.000
    C2      C    0.96827   0.15877   0.12571   1.000
    C3      C    0.96827   0.65877   0.12571   1.000
    C4      C    0.31678   0.44041   0.08138   1.000
    C5      C    0.31678   0.94040   0.08138   1.000
    C6      C    0.81678   0.44041   0.08138   1.000
    C7      C    0.81678   0.94040   0.08138   1.000
    C8      C    0.01677   0.40195   0.16700   1.000
    C9      C    0.01678   0.90194   0.16700   1.000
    C10     C    0.51678   0.40195   0.16700   1.000
    C11     C    0.51678   0.90194   0.16700   1.000
    C12     C    0.34123   0.03173   0.37426   1.000
    C13     C    0.34123   0.53173   0.37426   1.000
    C14     C    0.84123   0.03173   0.37426   1.000
    C15     C    0.84124   0.53173   0.37426   1.000
    C16     C    0.05959   0.18323   0.41858   1.000
    C17     C    0.05960   0.68323   0.41858   1.000
    C18     C    0.55960   0.18323   0.41858   1.000
    C19     C    0.55960   0.68323   0.41858   1.000
    C20     C    0.09805   0.48320   0.33304   1.000
    C21     C    0.09805   0.98320   0.33304   1.000
    C22     C    0.59805   0.48320   0.33304   1.000
    C23     C    0.59805   0.98320   0.33304   1.000
    C24     C    0.03175   0.34122   0.87430   1.000
    C25     C    0.03175   0.84122   0.87430   1.000
    C26     C    0.53175   0.34122   0.87430   1.000
    C27     C    0.53175   0.84122   0.87430   1.000
    C28     C    0.18323   0.05959   0.91863   1.000
    C29     C    0.18323   0.55958   0.91863   1.000
    C30     C    0.68323   0.05959   0.91863   1.000
    C31     C    0.68324   0.55958   0.91863   1.000
    C32     C    0.48323   0.09805   0.83301   1.000
    C33     C    0.48324   0.59805   0.83301   1.000
    C34     C    0.98324   0.09805   0.83301   1.000
    C35     C    0.98324   0.59805   0.83301   1.000
    C36     C    0.15878   0.46826   0.62574   1.000
    C37     C    0.15878   0.96826   0.62574   1.000
    C38     C    0.65878   0.46826   0.62574   1.000
    C39     C    0.65878   0.96826   0.62574   1.000
    C40     C    0.44042   0.31677   0.58140   1.000
    C41     C    0.44042   0.81676   0.58140   1.000
    C42     C    0.94042   0.31677   0.58140   1.000
    C43     C    0.94042   0.81676   0.58140   1.000
    C44     C    0.40196   0.01679   0.66696   1.000
    C45     C    0.40197   0.51679   0.66696   1.000
    C46     C    0.90197   0.01679   0.66696   1.000
    C47     C    0.90197   0.51679   0.66696   1.000
    C48     C    0.43816   0.32215   0.07900   1.000
    C49     C    0.43816   0.82214   0.07900   1.000
    C50     C    0.93816   0.32215   0.07900   1.000
    C51     C    0.93816   0.82214   0.07900   1.000
    C52     C    0.15757   0.46842   0.12571   1.000
    C53     C    0.15757   0.96841   0.12571   1.000
    C54     C    0.65757   0.46842   0.12571   1.000
    C55     C    0.65757   0.96841   0.12571   1.000
    C56     C    0.39431   0.02094   0.16895   1.000
    C57     C    0.39431   0.52093   0.16895   1.000
    C58     C    0.89431   0.02094   0.16895   1.000
    C59     C    0.89431   0.52093   0.16895   1.000
    C60     C    0.17782   0.06184   0.42105   1.000
    C61     C    0.17782   0.56183   0.42105   1.000
    C62     C    0.67782   0.06184   0.42105   1.000
    C63     C    0.67782   0.56183   0.42105   1.000
    C64     C    0.03157   0.34243   0.37433   1.000
    C65     C    0.03157   0.84242   0.37433   1.000
    C66     C    0.53157   0.34243   0.37433   1.000
    C67     C    0.53157   0.84242   0.37433   1.000
    C68     C    0.47908   0.10568   0.33101   1.000
    C69     C    0.47908   0.60568   0.33101   1.000
    C70     C    0.97908   0.10568   0.33101   1.000
    C71     C    0.97909   0.60568   0.33101   1.000
    C72     C    0.06185   0.17785   0.92101   1.000
    C73     C    0.06186   0.67785   0.92101   1.000
    C74     C    0.56186   0.17785   0.92101   1.000
    C75     C    0.56186   0.67785   0.92101   1.000
    C76     C    0.34244   0.03158   0.87430   1.000
    C77     C    0.34244   0.53158   0.87430   1.000
    C78     C    0.84244   0.03158   0.87430   1.000
    C79     C    0.84245   0.53158   0.87430   1.000
    C80     C    0.10570   0.47906   0.83106   1.000
    C81     C    0.10570   0.97906   0.83106   1.000
    C82     C    0.60570   0.47906   0.83106   1.000
    C83     C    0.60571   0.97906   0.83106   1.000
    C84     C    0.32219   0.43816   0.57896   1.000
    C85     C    0.32219   0.93815   0.57896   1.000
    C86     C    0.82219   0.43816   0.57896   1.000
    C87     C    0.82220   0.93815   0.57896   1.000
    C88     C    0.46844   0.15757   0.62567   1.000
    C89     C    0.46844   0.65757   0.62567   1.000
    C90     C    0.96844   0.15757   0.62567   1.000
    C91     C    0.96845   0.65757   0.62567   1.000
    C92     C    0.02093   0.39431   0.66899   1.000
    C93     C    0.02093   0.89431   0.66899   1.000
    C94     C    0.52093   0.39431   0.66899   1.000
    C95     C    0.52093   0.89431   0.66899   1.000
    C96     C    0.10586   0.41950   0.11814   1.000
    C97     C    0.10586   0.91949   0.11814   1.000
    C98     C    0.60586   0.41950   0.11814   1.000
    C99     C    0.60587   0.91949   0.11814   1.000
    C100    C    0.42603   0.24317   0.11473   1.000
    C101    C    0.42604   0.74317   0.11473   1.000
    C102    C    0.92604   0.24317   0.11473   1.000
    C103    C    0.92604   0.74317   0.11473   1.000
    C104    C    0.34006   0.00624   0.12272   1.000
    C105    C    0.34006   0.50624   0.12272   1.000
    C106    C    0.84006   0.00625   0.12272   1.000
    C107    C    0.84006   0.50624   0.12272   1.000
    C108    C    0.12704   0.49842   0.21167   1.000
    C109    C    0.12704   0.99841   0.21160   1.000
    C110    C    0.62704   0.49842   0.21160   1.000
    C111    C    0.62704   0.99841   0.21160   1.000
    C112    C    0.40457   0.10055   0.13711   1.000
    C113    C    0.40457   0.60055   0.13711   1.000
    C114    C    0.90457   0.10055   0.13711   1.000
    C115    C    0.90457   0.60055   0.13711   1.000
    C116    C    0.49576   0.33880   0.11938   1.000
    C117    C    0.49577   0.83880   0.11938   1.000
    C118    C    0.99577   0.33880   0.11930   1.000
    C119    C    0.99577   0.83880   0.11938   1.000
    C120    C    0.36698   0.49716   0.27577   1.000
    C121    C    0.36698   0.99716   0.27577   1.000
    C122    C    0.86698   0.49716   0.27577   1.000
    C123    C    0.86698   0.99716   0.27577   1.000
    C124    C    0.22745   0.42506   0.13307   1.000
    C125    C    0.22746   0.92505   0.13307   1.000
    C126    C    0.72746   0.42506   0.13307   1.000
    C127    C    0.72746   0.92505   0.13307   1.000
    C128    C    0.17011   0.03148   0.03990   1.000
    C129    C    0.17011   0.53148   0.03990   1.000
    C130    C    0.67011   0.03148   0.03990   1.000
    C131    C    0.67011   0.53148   0.03990   1.000
    C132    C    0.46552   0.48061   0.13850   1.000
    C133    C    0.46553   0.98061   0.13850   1.000
    C134    C    0.96553   0.48061   0.13850   1.000
    C135    C    0.96553   0.98061   0.13850   1.000
    C136    C    0.36810   0.36267   0.11164   1.000
    C137    C    0.36811   0.86266   0.11164   1.000
    C138    C    0.86811   0.36267   0.11164   1.000
    C139    C    0.86811   0.86266   0.11164   1.000
    C140    C    0.46128   0.34314   0.97175   1.000
    C141    C    0.46128   0.84314   0.97175   1.000
    C142    C    0.96128   0.34314   0.97175   1.000
    C143    C    0.96129   0.84314   0.97175   1.000
    C144    C    0.08050   0.39412   0.38190   1.000
    C145    C    0.08050   0.89412   0.38190   1.000
    C146    C    0.58050   0.39412   0.38190   1.000
    C147    C    0.58050   0.89412   0.38190   1.000
    C148    C    0.25681   0.07393   0.38540   1.000
    C149    C    0.25681   0.57393   0.38540   1.000
    C150    C    0.75681   0.07393   0.38540   1.000
    C151    C    0.75682   0.57393   0.38540   1.000
    C152    C    0.49377   0.15995   0.37720   1.000
    C153    C    0.49377   0.65994   0.37720   1.000
    C154    C    0.99377   0.15995   0.37720   1.000
    C155    C    0.99377   0.65994   0.37720   1.000
    C156    C    0.00153   0.37298   0.28839   1.000
    C157    C    0.00153   0.87298   0.28839   1.000
    C158    C    0.50153   0.37298   0.28839   1.000
    C159    C    0.50153   0.87298   0.28839   1.000
    C160    C    0.39946   0.09544   0.36281   1.000
    C161    C    0.39946   0.59543   0.36281   1.000
    C162    C    0.89946   0.09544   0.36281   1.000
    C163    C    0.89946   0.59543   0.36281   1.000
    C164    C    0.16119   0.00423   0.38068   1.000
    C165    C    0.16119   0.50423   0.38068   1.000
    C166    C    0.66119   0.00423   0.38068   1.000
    C167    C    0.66120   0.50423   0.38068   1.000
    C168    C    0.00288   0.13297   0.22410   1.000
    C169    C    0.00288   0.63296   0.22410   1.000
    C170    C    0.50288   0.13297   0.22410   1.000
    C171    C    0.50288   0.63296   0.22410   1.000
    C172    C    0.07493   0.27256   0.36693   1.000
    C173    C    0.07493   0.77255   0.36693   1.000
    C174    C    0.57493   0.27256   0.36693   1.000
    C175    C    0.57494   0.77255   0.36693   1.000
    C176    C    0.46853   0.32987   0.46015   1.000
    C177    C    0.46853   0.82987   0.46015   1.000
    C178    C    0.96853   0.32987   0.46015   1.000
    C179    C    0.96853   0.82987   0.46015   1.000
    C180    C    0.01938   0.03447   0.36153   1.000
    C181    C    0.01939   0.53446   0.36153   1.000
    C182    C    0.51939   0.03447   0.36153   1.000
    C183    C    0.51939   0.53446   0.36153   1.000
    C184    C    0.13733   0.13190   0.38830   1.000
    C185    C    0.13733   0.63190   0.38830   1.000
    C186    C    0.63733   0.13190   0.38830   1.000
    C187    C    0.63733   0.63190   0.38830   1.000
    C188    C    0.15674   0.03876   0.52832   1.000
    C189    C    0.15674   0.53875   0.52832   1.000
    C190    C    0.65675   0.03876   0.52832   1.000
    C191    C    0.65675   0.53875   0.52832   1.000
    C192    C    0.39415   0.08050   0.88186   1.000
    C193    C    0.39415   0.58049   0.88186   1.000
    C194    C    0.89415   0.08050   0.88186   1.000
    C195    C    0.89416   0.58049   0.88186   1.000
    C196    C    0.07398   0.25683   0.88528   1.000
    C197    C    0.07398   0.75682   0.88528   1.000
    C198    C    0.57398   0.25683   0.88528   1.000
    C199    C    0.57398   0.75682   0.88528   1.000
    C200    C    0.15995   0.49375   0.87720   1.000
    C201    C    0.15996   0.99375   0.87728   1.000
    C202    C    0.65996   0.49375   0.87728   1.000
    C203    C    0.65996   0.99375   0.87720   1.000
    C204    C    0.37297   0.00158   0.78834   1.000
    C205    C    0.37298   0.50157   0.78834   1.000
    C206    C    0.87297   0.00158   0.78834   1.000
    C207    C    0.87298   0.50157   0.78834   1.000
    C208    C    0.09544   0.39944   0.86200   1.000
    C209    C    0.09544   0.89944   0.86200   1.000
    C210    C    0.59545   0.39944   0.86200   1.000
    C211    C    0.59545   0.89944   0.86200   1.000
    C212    C    0.00424   0.16120   0.88063   1.000
    C213    C    0.00425   0.66119   0.88063   1.000
    C214    C    0.50425   0.16120   0.88063   1.000
    C215    C    0.50425   0.66119   0.88063   1.000
    C216    C    0.13303   0.00284   0.72424   1.000
    C217    C    0.13303   0.50283   0.72424   1.000
    C218    C    0.63303   0.00284   0.72424   1.000
    C219    C    0.63304   0.50283   0.72424   1.000
    C220    C    0.27256   0.07494   0.86694   1.000
    C221    C    0.27256   0.57494   0.86694   1.000
    C222    C    0.77256   0.07494   0.86694   1.000
    C223    C    0.77256   0.57494   0.86694   1.000
    C224    C    0.32990   0.46851   0.96011   1.000
    C225    C    0.32990   0.96851   0.96011   1.000
    C226    C    0.82990   0.46852   0.96011   1.000
    C227    C    0.82991   0.96851   0.96011   1.000
    C228    C    0.03449   0.01938   0.86150   1.000
    C229    C    0.03449   0.51938   0.86150   1.000
    C230    C    0.53449   0.01938   0.86150   1.000
    C231    C    0.53449   0.51938   0.86150   1.000
    C232    C    0.13190   0.13733   0.88837   1.000
    C233    C    0.13191   0.63732   0.88837   1.000
    C234    C    0.63191   0.13733   0.88837   1.000
    C235    C    0.63191   0.63732   0.88837   1.000
    C236    C    0.03873   0.15685   0.02826   1.000
    C237    C    0.03873   0.65685   0.02826   1.000
    C238    C    0.53873   0.15685   0.02826   1.000
    C239    C    0.53873   0.65685   0.02826   1.000
    C240    C    0.41951   0.10587   0.61811   1.000
    C241    C    0.41951   0.60587   0.61811   1.000
    C242    C    0.91951   0.10587   0.61811   1.000
    C243    C    0.91952   0.60587   0.61811   1.000
    C244    C    0.24320   0.42606   0.61461   1.000
    C245    C    0.24320   0.92606   0.61460   1.000
    C246    C    0.74320   0.42606   0.61460   1.000
    C247    C    0.74321   0.92606   0.61461   1.000
    C248    C    0.00624   0.34005   0.62280   1.000
    C249    C    0.00625   0.84004   0.62280   1.000
    C250    C    0.50625   0.34005   0.62280   1.000
    C251    C    0.50625   0.84005   0.62280   1.000
    C252    C    0.49848   0.12701   0.71162   1.000
    C253    C    0.49848   0.62701   0.71162   1.000
    C254    C    0.99848   0.12701   0.71162   1.000
    C255    C    0.99849   0.62701   0.71162   1.000
    C256    C    0.10055   0.40456   0.63720   1.000
    C257    C    0.10056   0.90456   0.63720   1.000
    C258    C    0.60056   0.40456   0.63720   1.000
    C259    C    0.60056   0.90456   0.63720   1.000
    C260    C    0.33882   0.49577   0.61932   1.000
    C261    C    0.33882   0.99576   0.61930   1.000
    C262    C    0.83882   0.49577   0.61930   1.000
    C263    C    0.83883   0.99576   0.61932   1.000
    C264    C    0.49713   0.36703   0.77582   1.000
    C265    C    0.49714   0.86702   0.77582   1.000
    C266    C    0.99714   0.36703   0.77582   1.000
    C267    C    0.99714   0.86702   0.77582   1.000
    C268    C    0.42508   0.22744   0.63300   1.000
    C269    C    0.42508   0.72743   0.63300   1.000
    C270    C    0.92508   0.22744   0.63300   1.000
    C271    C    0.92508   0.72743   0.63300   1.000
    C272    C    0.03148   0.17013   0.53986   1.000
    C273    C    0.03148   0.67012   0.53986   1.000
    C274    C    0.53148   0.17013   0.53986   1.000
    C275    C    0.53149   0.67012   0.53986   1.000
    C276    C    0.48063   0.46553   0.63848   1.000
    C277    C    0.48063   0.96552   0.63848   1.000
    C278    C    0.98063   0.46553   0.63848   1.000
    C279    C    0.98063   0.96552   0.63848   1.000
    C280    C    0.36268   0.36810   0.61168   1.000
    C281    C    0.36269   0.86809   0.61168   1.000
    C282    C    0.86269   0.36810   0.61168   1.000
    C283    C    0.86269   0.86809   0.61168   1.000
    C284    C    0.34327   0.46124   0.47169   1.000
    C285    C    0.34327   0.96123   0.47169   1.000
    C286    C    0.84327   0.46124   0.47169   1.000
    C287    C    0.84327   0.96123   0.47169   1.000
    O288    O    0.00350   0.15781   0.07699   1.000
    O289    O    0.05029   0.16735   0.97464   1.000
    O290    O    0.00350   0.65781   0.07699   1.000
    O291    O    0.05029   0.66735   0.97464   1.000
    O292    O    0.50350   0.15781   0.07699   1.000
    O293    O    0.55029   0.16735   0.97464   1.000
    O294    O    0.50350   0.65781   0.07699   1.000
    O295    O    0.55030   0.66735   0.97464   1.000
    O296    O    0.16384   0.99995   0.08281   1.000
    O297    O    0.17667   0.04554   0.97927   1.000
    O298    O    0.16384   0.49995   0.08281   1.000
    O299    O    0.17667   0.54553   0.97927   1.000
    O300    O    0.66384   0.99995   0.08281   1.000
    O301    O    0.67667   0.04554   0.97927   1.000
    O302    O    0.66384   0.49995   0.08281   1.000
    O303    O    0.67668   0.54553   0.97927   1.000
    O304    O    0.40313   0.34241   0.09532   1.000
    O305    O    0.43209   0.28266   0.09687   1.000
    O306    O    0.46696   0.33047   0.09919   1.000
    O307    O    0.44972   0.33264   0.02538   1.000
    O308    O    0.90314   0.84240   0.09532   1.000
    O309    O    0.93210   0.78265   0.09687   1.000
    O310    O    0.96697   0.83047   0.09919   1.000
    O311    O    0.94973   0.83264   0.02538   1.000
    O312    O    0.90313   0.34241   0.09532   1.000
    O313    O    0.93210   0.28266   0.09687   1.000
    O314    O    0.96696   0.33047   0.09915   1.000
    O315    O    0.94972   0.33264   0.02538   1.000
    O316    O    0.40313   0.84240   0.09532   1.000
    O317    O    0.43210   0.78265   0.09687   1.000
    O318    O    0.46696   0.83047   0.09919   1.000
    O319    O    0.44972   0.83264   0.02538   1.000
    O320    O    0.84245   0.90153   0.09651   1.000
    O321    O    0.82842   0.97332   0.10205   1.000
    O322    O    0.77212   0.93273   0.10723   1.000
    O323    O    0.82334   0.95446   0.02075   1.000
    O324    O    0.84244   0.40154   0.09651   1.000
    O325    O    0.82842   0.47332   0.10205   1.000
    O326    O    0.77212   0.43273   0.10723   1.000
    O327    O    0.82334   0.45446   0.02075   1.000
    O328    O    0.34244   0.90153   0.09651   1.000
    O329    O    0.32842   0.97332   0.10205   1.000
    O330    O    0.27212   0.93273   0.10723   1.000
    O331    O    0.32334   0.95446   0.02075   1.000
    O332    O    0.34244   0.40154   0.09651   1.000
    O333    O    0.32842   0.47332   0.10205   1.000
    O334    O    0.27212   0.43273   0.10723   1.000
    O335    O    0.32334   0.45446   0.02075   1.000
    O336    O    0.94715   0.70097   0.12022   1.000
    O337    O    0.94715   0.20097   0.12022   1.000
    O338    O    0.44715   0.70097   0.12022   1.000
    O339    O    0.44715   0.20097   0.12022   1.000
    O340    O    0.63172   0.94395   0.12193   1.000
    O341    O    0.56132   0.91072   0.14257   1.000
    O342    O    0.13172   0.94395   0.12193   1.000
    O343    O    0.06132   0.91072   0.14257   1.000
    O344    O    0.63172   0.44396   0.12193   1.000
    O345    O    0.56132   0.41072   0.14257   1.000
    O346    O    0.13171   0.44396   0.12193   1.000
    O347    O    0.06132   0.41072   0.14257   1.000
    O348    O    0.00627   0.37037   0.14315   1.000
    O349    O    0.00627   0.87037   0.14319   1.000
    O350    O    0.50627   0.87037   0.14319   1.000
    O351    O    0.50627   0.37037   0.14319   1.000
    O352    O    0.86719   0.51359   0.14584   1.000
    O353    O    0.86719   0.01359   0.14584   1.000
    O354    O    0.36718   0.51359   0.14584   1.000
    O355    O    0.36718   0.01359   0.14584   1.000
    O356    O    0.43642   0.12966   0.13141   1.000
    O357    O    0.48557   0.14587   0.17491   1.000
    O358    O    0.69252   0.94673   0.12939   1.000
    O359    O    0.64231   0.98341   0.16866   1.000
    O360    O    0.69251   0.44674   0.12939   1.000
    O361    O    0.64231   0.48342   0.16866   1.000
    O362    O    0.19251   0.94673   0.12939   1.000
    O363    O    0.14230   0.98341   0.16866   1.000
    O364    O    0.19251   0.44674   0.12939   1.000
    O365    O    0.14230   0.48342   0.16869   1.000
    O366    O    0.43642   0.62966   0.13141   1.000
    O367    O    0.48557   0.64587   0.17491   1.000
    O368    O    0.93642   0.12966   0.13141   1.000
    O369    O    0.98557   0.14587   0.17491   1.000
    O370    O    0.93642   0.62966   0.13141   1.000
    O371    O    0.98557   0.64587   0.17491   1.000
    O372    O    0.89944   0.06074   0.15303   1.000
    O373    O    0.39944   0.06074   0.15303   1.000
    O374    O    0.39944   0.56074   0.15303   1.000
    O375    O    0.89944   0.56074   0.15303   1.000
    O376    O    0.99115   0.94127   0.15275   1.000
    O377    O    0.92992   0.00077   0.15373   1.000
    O378    O    0.99115   0.44128   0.15275   1.000
    O379    O    0.92992   0.50077   0.15373   1.000
    O380    O    0.49115   0.94127   0.15275   1.000
    O381    O    0.42992   0.00077   0.15373   1.000
    O382    O    0.49115   0.44128   0.15275   1.000
    O383    O    0.42992   0.50077   0.15373   1.000
    O384    O    0.00915   0.38746   0.22770   1.000
    O385    O    0.50916   0.88746   0.22770   1.000
    O386    O    0.50915   0.38746   0.22770   1.000
    O387    O    0.00915   0.88746   0.22770   1.000
    O388    O    0.88065   0.50905   0.22236   1.000
    O389    O    0.88065   0.00905   0.22236   1.000
    O390    O    0.38064   0.50905   0.22236   1.000
    O391    O    0.38064   0.00905   0.22236   1.000
    O392    O    0.61254   0.49081   0.27232   1.000
    O393    O    0.11254   0.99080   0.27232   1.000
    O394    O    0.61255   0.99080   0.27232   1.000
    O395    O    0.11254   0.49081   0.27236   1.000
    O396    O    0.99098   0.61932   0.27756   1.000
    O397    O    0.99098   0.11933   0.27756   1.000
    O398    O    0.49098   0.61932   0.27756   1.000
    O399    O    0.49098   0.11932   0.27756   1.000
    O400    O    0.85411   0.01444   0.32502   1.000
    O401    O    0.85411   0.51444   0.32502   1.000
    O402    O    0.35411   0.01444   0.32502   1.000
    O403    O    0.35411   0.51444   0.32502   1.000
    O404    O    0.51655   0.85770   0.33136   1.000
    O405    O    0.51655   0.35770   0.33136   1.000
    O406    O    0.01655   0.85770   0.33136   1.000
    O407    O    0.01655   0.35770   0.33136   1.000
    O408    O    0.99924   0.57007   0.34627   1.000
    O409    O    0.93927   0.60055   0.34691   1.000
    O410    O    0.98643   0.63281   0.35411   1.000
    O411    O    0.99923   0.07008   0.34627   1.000
    O412    O    0.93927   0.10056   0.34691   1.000
    O413    O    0.98643   0.13281   0.35411   1.000
    O414    O    0.49924   0.57007   0.34627   1.000
    O415    O    0.43927   0.60055   0.34691   1.000
    O416    O    0.48643   0.63281   0.35411   1.000
    O417    O    0.49923   0.07008   0.34627   1.000
    O418    O    0.43927   0.10056   0.34691   1.000
    O419    O    0.48642   0.13281   0.35411   1.000
    O420    O    0.55872   0.00883   0.34729   1.000
    O421    O    0.62962   0.99371   0.35686   1.000
    O422    O    0.58928   0.93866   0.35747   1.000
    O423    O    0.55872   0.50883   0.34729   1.000
    O424    O    0.62962   0.49371   0.35686   1.000
    O425    O    0.58928   0.43866   0.35747   1.000
    O426    O    0.05872   0.00883   0.34729   1.000
    O427    O    0.12962   0.99371   0.35686   1.000
    O428    O    0.08927   0.93866   0.35747   1.000
    O429    O    0.05872   0.50883   0.34729   1.000
    O430    O    0.12962   0.49371   0.35686   1.000
    O431    O    0.08927   0.43866   0.35747   1.000
    O432    O    0.37034   0.06358   0.36854   1.000
    O433    O    0.37035   0.56358   0.36854   1.000
    O434    O    0.87035   0.06358   0.36854   1.000
    O435    O    0.87035   0.56358   0.36854   1.000
    O436    O    0.55325   0.30749   0.37063   1.000
    O437    O    0.56727   0.22789   0.39276   1.000
    O438    O    0.05325   0.80749   0.37063   1.000
    O439    O    0.06726   0.72789   0.39276   1.000
    O440    O    0.05325   0.30749   0.37063   1.000
    O441    O    0.06726   0.22789   0.39276   1.000
    O442    O    0.55326   0.80749   0.37063   1.000
    O443    O    0.56727   0.72789   0.39276   1.000
    O444    O    0.79903   0.55283   0.37983   1.000
    O445    O    0.84225   0.49648   0.42298   1.000
    O446    O    0.79902   0.05283   0.37983   1.000
    O447    O    0.84225   0.99648   0.42298   1.000
    O448    O    0.29902   0.55283   0.37983   1.000
    O449    O    0.34225   0.49648   0.42298   1.000
    O450    O    0.29902   0.05283   0.37983   1.000
    O451    O    0.34225   0.99648   0.42298   1.000
    O452    O    0.05604   0.86827   0.37812   1.000
    O453    O    0.00005   0.83614   0.41724   1.000
    O454    O    0.05603   0.36827   0.37812   1.000
    O455    O    0.00005   0.33615   0.41724   1.000
    O456    O    0.55604   0.36827   0.37812   1.000
    O457    O    0.50005   0.33615   0.41724   1.000
    O458    O    0.55604   0.86827   0.37812   1.000
    O459    O    0.50005   0.83614   0.41724   1.000
    O460    O    0.52668   0.17159   0.39789   1.000
    O461    O    0.52668   0.67158   0.39789   1.000
    O462    O    0.02668   0.17159   0.39789   1.000
    O463    O    0.02668   0.67158   0.39789   1.000
    O464    O    0.66951   0.53303   0.40087   1.000
    O465    O    0.66951   0.03303   0.40087   1.000
    O466    O    0.16951   0.53303   0.40087   1.000
    O467    O    0.16950   0.03303   0.40087   1.000
    O468    O    0.21731   0.06789   0.40323   1.000
    O469    O    0.21732   0.56788   0.40323   1.000
    O470    O    0.71732   0.06789   0.40323   1.000
    O471    O    0.71732   0.56788   0.40323   1.000
    O472    O    0.59847   0.65756   0.40344   1.000
    O473    O    0.65758   0.59686   0.40468   1.000
    O474    O    0.59846   0.15757   0.40344   1.000
    O475    O    0.65758   0.09687   0.40468   1.000
    O476    O    0.09846   0.65756   0.40344   1.000
    O477    O    0.15757   0.59686   0.40468   1.000
    O478    O    0.09846   0.15757   0.40344   1.000
    O479    O    0.15757   0.09687   0.40468   1.000
    O480    O    0.54554   0.67667   0.47922   1.000
    O481    O    0.04554   0.17668   0.47922   1.000
    O482    O    0.04554   0.67667   0.47922   1.000
    O483    O    0.54554   0.17668   0.47922   1.000
    O484    O    0.16728   0.05030   0.47469   1.000
    O485    O    0.16728   0.55029   0.47469   1.000
    O486    O    0.66728   0.05030   0.47469   1.000
    O487    O    0.66728   0.55029   0.47469   1.000
    O488    O    0.95448   0.82331   0.52078   1.000
    O489    O    0.95447   0.32332   0.52078   1.000
    O490    O    0.45447   0.82331   0.52078   1.000
    O491    O    0.45447   0.32332   0.52078   1.000
    O492    O    0.83274   0.94969   0.52533   1.000
    O493    O    0.83273   0.44970   0.52533   1.000
    O494    O    0.33273   0.94969   0.52533   1.000
    O495    O    0.33273   0.44970   0.52533   1.000
    O496    O    0.65776   0.50351   0.57703   1.000
    O497    O    0.65776   0.00351   0.57703   1.000
    O498    O    0.15776   0.50351   0.57703   1.000
    O499    O    0.15776   0.00351   0.57703   1.000
    O500    O    0.49996   0.16385   0.58277   1.000
    O501    O    0.99996   0.66384   0.58277   1.000
    O502    O    0.99996   0.16385   0.58277   1.000
    O503    O    0.49997   0.66384   0.58277   1.000
    O504    O    0.84244   0.40313   0.59532   1.000
    O505    O    0.78270   0.43211   0.59678   1.000
    O506    O    0.83051   0.46696   0.59913   1.000
    O507    O    0.34244   0.90312   0.59532   1.000
    O508    O    0.28270   0.93211   0.59678   1.000
    O509    O    0.33051   0.96696   0.59913   1.000
    O510    O    0.34244   0.40313   0.59532   1.000
    O511    O    0.28269   0.43211   0.59679   1.000
    O512    O    0.33050   0.46696   0.59914   1.000
    O513    O    0.84244   0.90312   0.59532   1.000
    O514    O    0.78270   0.93211   0.59679   1.000
    O515    O    0.83051   0.96696   0.59914   1.000
    O516    O    0.90155   0.84243   0.59654   1.000
    O517    O    0.97333   0.82840   0.60210   1.000
    O518    O    0.93275   0.77210   0.60720   1.000
    O519    O    0.90155   0.34243   0.59654   1.000
    O520    O    0.97333   0.32841   0.60210   1.000
    O521    O    0.93275   0.27210   0.60720   1.000
    O522    O    0.40155   0.84243   0.59654   1.000
    O523    O    0.47333   0.82840   0.60210   1.000
    O524    O    0.43275   0.77210   0.60720   1.000
    O525    O    0.40155   0.34243   0.59654   1.000
    O526    O    0.47333   0.32841   0.60210   1.000
    O527    O    0.43275   0.27210   0.60720   1.000
    O528    O    0.70099   0.44716   0.62017   1.000
    O529    O    0.20099   0.94716   0.62017   1.000
    O530    O    0.20099   0.44716   0.62018   1.000
    O531    O    0.70099   0.94716   0.62018   1.000
    O532    O    0.94398   0.13172   0.62189   1.000
    O533    O    0.91074   0.06133   0.64254   1.000
    O534    O    0.44398   0.13172   0.62189   1.000
    O535    O    0.41074   0.06133   0.64254   1.000
    O536    O    0.94398   0.63172   0.62189   1.000
    O537    O    0.91074   0.56133   0.64254   1.000
    O538    O    0.44398   0.63172   0.62189   1.000
    O539    O    0.41074   0.56133   0.64254   1.000
    O540    O    0.87040   0.50628   0.64313   1.000
    O541    O    0.37039   0.00628   0.64313   1.000
    O542    O    0.37039   0.50628   0.64314   1.000
    O543    O    0.87040   0.00628   0.64314   1.000
    O544    O    0.51359   0.86718   0.64590   1.000
    O545    O    0.51359   0.36718   0.64590   1.000
    O546    O    0.01359   0.86718   0.64590   1.000
    O547    O    0.01359   0.36718   0.64590   1.000
    O548    O    0.44676   0.19250   0.62934   1.000
    O549    O    0.48346   0.14229   0.66865   1.000
    O550    O    0.44676   0.69250   0.62934   1.000
    O551    O    0.48346   0.64229   0.66865   1.000
    O552    O    0.94676   0.19250   0.62934   1.000
    O553    O    0.98346   0.14229   0.66865   1.000
    O554    O    0.94676   0.69250   0.62934   1.000
    O555    O    0.98347   0.64229   0.66865   1.000
    O556    O    0.12967   0.43641   0.63147   1.000
    O557    O    0.14591   0.48555   0.67499   1.000
    O558    O    0.12967   0.93641   0.63147   1.000
    O559    O    0.14591   0.98555   0.67499   1.000
    O560    O    0.62967   0.43641   0.63147   1.000
    O561    O    0.64591   0.48555   0.67499   1.000
    O562    O    0.62967   0.93641   0.63147   1.000
    O563    O    0.64591   0.98555   0.67499   1.000
    O564    O    0.56075   0.89943   0.65310   1.000
    O565    O    0.06074   0.39944   0.65310   1.000
    O566    O    0.06074   0.89943   0.65310   1.000
    O567    O    0.56074   0.39944   0.65310   1.000
    O568    O    0.94130   0.99116   0.65272   1.000
    O569    O    0.00078   0.92992   0.65374   1.000
    O570    O    0.94130   0.49116   0.65272   1.000
    O571    O    0.00078   0.42992   0.65374   1.000
    O572    O    0.44129   0.99116   0.65272   1.000
    O573    O    0.50078   0.92992   0.65374   1.000
    O574    O    0.44130   0.49116   0.65272   1.000
    O575    O    0.50078   0.42992   0.65374   1.000
    O576    O    0.38747   0.00919   0.72765   1.000
    O577    O    0.38747   0.50918   0.72765   1.000
    O578    O    0.88747   0.00919   0.72765   1.000
    O579    O    0.88747   0.50918   0.72765   1.000
    O580    O    0.50903   0.38067   0.72241   1.000
    O581    O    0.50903   0.88067   0.72241   1.000
    O582    O    0.00903   0.88067   0.72241   1.000
    O583    O    0.00903   0.38067   0.72241   1.000
    O584    O    0.99086   0.61253   0.77232   1.000
    O585    O    0.49086   0.11253   0.77232   1.000
    O586    O    0.49086   0.61253   0.77232   1.000
    O587    O    0.99086   0.11253   0.77232   1.000
    O588    O    0.11937   0.99095   0.77765   1.000
    O589    O    0.11937   0.49095   0.77765   1.000
    O590    O    0.61937   0.99095   0.77765   1.000
    O591    O    0.61937   0.49095   0.77765   1.000
    O592    O    0.51444   0.35412   0.82506   1.000
    O593    O    0.51444   0.85412   0.82506   1.000
    O594    O    0.01444   0.35412   0.82506   1.000
    O595    O    0.01444   0.85412   0.82506   1.000
    O596    O    0.85771   0.01658   0.83132   1.000
    O597    O    0.35771   0.01658   0.83132   1.000
    O598    O    0.35771   0.51657   0.83132   1.000
    O599    O    0.85771   0.51657   0.83132   1.000
    O600    O    0.07009   0.99922   0.84628   1.000
    O601    O    0.10057   0.93925   0.84653   1.000
    O602    O    0.13283   0.98640   0.85417   1.000
    O603    O    0.07009   0.49922   0.84628   1.000
    O604    O    0.10057   0.43925   0.84653   1.000
    O605    O    0.13283   0.48641   0.85413   1.000
    O606    O    0.57010   0.49922   0.84628   1.000
    O607    O    0.60057   0.43925   0.84653   1.000
    O608    O    0.63283   0.48641   0.85417   1.000
    O609    O    0.57010   0.99922   0.84628   1.000
    O610    O    0.60058   0.93925   0.84653   1.000
    O611    O    0.63283   0.98640   0.85413   1.000
    O612    O    0.00886   0.55871   0.84726   1.000
    O613    O    0.99374   0.62962   0.85682   1.000
    O614    O    0.93870   0.58927   0.85744   1.000
    O615    O    0.00886   0.05872   0.84726   1.000
    O616    O    0.99374   0.12962   0.85682   1.000
    O617    O    0.93870   0.08927   0.85744   1.000
    O618    O    0.50886   0.55871   0.84726   1.000
    O619    O    0.49374   0.62962   0.85682   1.000
    O620    O    0.43869   0.58927   0.85744   1.000
    O621    O    0.50886   0.05872   0.84726   1.000
    O622    O    0.49374   0.12962   0.85682   1.000
    O623    O    0.43869   0.08927   0.85744   1.000
    O624    O    0.06359   0.37033   0.86815   1.000
    O625    O    0.06360   0.87033   0.86815   1.000
    O626    O    0.56360   0.37033   0.86815   1.000
    O627    O    0.56360   0.87033   0.86815   1.000
    O628    O    0.80750   0.55326   0.87062   1.000
    O629    O    0.72790   0.56726   0.89279   1.000
    O630    O    0.30750   0.05326   0.87062   1.000
    O631    O    0.22789   0.06726   0.89279   1.000
    O632    O    0.80750   0.05326   0.87062   1.000
    O633    O    0.72790   0.06726   0.89279   1.000
    O634    O    0.30750   0.55326   0.87062   1.000
    O635    O    0.22790   0.56726   0.89279   1.000
    O636    O    0.86830   0.55604   0.87808   1.000
    O637    O    0.83617   0.50005   0.91721   1.000
    O638    O    0.86830   0.05604   0.87808   1.000
    O639    O    0.83617   0.00005   0.91721   1.000
    O640    O    0.36830   0.55604   0.87808   1.000
    O641    O    0.33617   0.50004   0.91721   1.000
    O642    O    0.36830   0.05604   0.87808   1.000
    O643    O    0.33617   0.00005   0.91721   1.000
    O644    O    0.05286   0.29902   0.87979   1.000
    O645    O    0.99652   0.34218   0.92303   1.000
    O646    O    0.05286   0.79902   0.87979   1.000
    O647    O    0.99652   0.84218   0.92303   1.000
    O648    O    0.55286   0.29902   0.87979   1.000
    O649    O    0.49652   0.34218   0.92303   1.000
    O650    O    0.55287   0.79902   0.87979   1.000
    O651    O    0.49652   0.84218   0.92303   1.000
    O652    O    0.67160   0.02667   0.89792   1.000
    O653    O    0.17159   0.52667   0.89792   1.000
    O654    O    0.17159   0.02667   0.89796   1.000
    O655    O    0.67160   0.52667   0.89796   1.000
    O656    O    0.03305   0.66952   0.90082   1.000
    O657    O    0.53305   0.66952   0.90082   1.000
    O658    O    0.53305   0.16952   0.90082   1.000
    O659    O    0.03305   0.16952   0.90082   1.000
    O660    O    0.06792   0.71733   0.90315   1.000
    O661    O    0.06791   0.21734   0.90315   1.000
    O662    O    0.56792   0.21734   0.90315   1.000
    O663    O    0.56792   0.71733   0.90315   1.000
    O664    O    0.65757   0.59845   0.90350   1.000
    O665    O    0.59688   0.65758   0.90469   1.000
    O666    O    0.15757   0.09846   0.90350   1.000
    O667    O    0.09688   0.15759   0.90469   1.000
    O668    O    0.15757   0.59845   0.90350   1.000
    O669    O    0.09688   0.65758   0.90469   1.000
    O670    O    0.65757   0.09846   0.90350   1.000
    O671    O    0.59688   0.15759   0.90469   1.000
loop_
    _geom_bond_atom_site_label_1
    _geom_bond_atom_site_label_2
    _geom_bond_distance
    _geom_bond_site_symmetry_2
    _ccdc_geom_bond_type
    C236   O288      0.87724      .   S
    C2     O288      0.87724  1_655   S
    C236   O289      0.77102  1_554   S
    C72    O289      0.77102      .   S
    C237   O290      0.87724      .   S
    C3     O290      0.87724  1_655   S
    C237   O291      0.77102  1_554   S
    C73    O291      0.77102      .   S
    C238   O292      0.87727      .   S
    C0     O292      0.87727      .   S
    C238   O293      0.77102  1_554   S
    C74    O293      0.77102      .   S
    C239   O294      0.87728      .   S
    C1     O294      0.87728      .   S
    C239   O295      0.77102  1_554   S
    C75    O295      0.77102      .   S
    C128   O296      0.76989  1_545   S
    C53    O296      0.76989      .   S
    C128   O297      0.87714  1_554   S
    C28    O297      0.87714      .   S
    C129   O298      0.76984      .   S
    C52    O298      0.76984      .   S
    C129   O299      0.87714  1_554   S
    C29    O299      0.87714      .   S
    C130   O300      0.76989  1_545   S
    C55    O300      0.76989      .   S
    C130   O301      0.87714  1_554   S
    C30    O301      0.87714      .   S
    C131   O302      0.76984      .   S
    C54    O302      0.76984      .   S
    C131   O303      0.87714  1_554   S
    C31    O303      0.87714      .   S
    C48    O304      0.76954      .   S
    C136   O304      0.76954      .   S
    C48    O305      0.76840      .   S
    C100   O305      0.76840      .   S
    C48    O306      0.77380      .   S
    C116   O306      0.77380      .   S
    C48    O307      0.77102      .   S
    C140   O307      0.77102  1_556   S
    C51    O308      0.76954      .   S
    C139   O308      0.76954      .   S
    C51    O309      0.76840      .   S
    C103   O309      0.76840      .   S
    C51    O310      0.77380      .   S
    C119   O310      0.77380      .   S
    C51    O311      0.77102      .   S
    C143   O311      0.77102  1_556   S
    C50    O312      0.76954      .   S
    C138   O312      0.76954      .   S
    C50    O313      0.76840      .   S
    C102   O313      0.76840      .   S
    C50    O314      0.77340      .   S
    C118   O314      0.77340      .   S
    C50    O315      0.77102      .   S
    C142   O315      0.77102  1_556   S
    C49    O316      0.76954      .   S
    C137   O316      0.76954      .   S
    C49    O317      0.76840      .   S
    C101   O317      0.76840      .   S
    C49    O318      0.77380      .   S
    C117   O318      0.77380      .   S
    C49    O319      0.77102      .   S
    C141   O319      0.77102  1_556   S
    C7     O320      0.87702      .   S
    C139   O320      0.87702      .   S
    C7     O321      0.87886      .   S
    C106   O321      0.87886  1_545   S
    C7     O322      0.87944      .   S
    C127   O322      0.87944      .   S
    C7     O323      0.87714      .   S
    C227   O323      0.87714  1_556   S
    C6     O324      0.87702      .   S
    C138   O324      0.87702      .   S
    C6     O325      0.87879      .   S
    C107   O325      0.87879      .   S
    C6     O326      0.87945      .   S
    C126   O326      0.87945      .   S
    C6     O327      0.87714      .   S
    C226   O327      0.87714  1_556   S
    C5     O328      0.87702      .   S
    C137   O328      0.87702      .   S
    C5     O329      0.87885      .   S
    C104   O329      0.87885  1_545   S
    C5     O330      0.87944      .   S
    C125   O330      0.87944      .   S
    C5     O331      0.87714      .   S
    C225   O331      0.87714  1_556   S
    C4     O332      0.87702      .   S
    C136   O332      0.87702      .   S
    C4     O333      0.87879      .   S
    C105   O333      0.87879      .   S
    C4     O334      0.87945      .   S
    C124   O334      0.87945      .   S
    C4     O335      0.87714      .   S
    C224   O335      0.87714  1_556   S
    C103   O336      0.87709      .   S
    C3     O336      0.87709      .   S
    C102   O337      0.87709      .   S
    C2     O337      0.87709      .   S
    C101   O338      0.87709      .   S
    C1     O338      0.87709      .   S
    C100   O339      0.87709      .   S
    C0     O339      0.87709      .   S
    C99    O340      0.77234      .   S
    C55    O340      0.77234      .   S
    C99    O341      0.87903      .   S
    C11    O341      0.87903      .   S
    C97    O342      0.77234      .   S
    C53    O342      0.77234      .   S
    C97    O343      0.87904      .   S
    C9     O343      0.87904      .   S
    C98    O344      0.77235      .   S
    C54    O344      0.77235      .   S
    C98    O345      0.87903      .   S
    C10    O345      0.87903      .   S
    C96    O346      0.77234      .   S
    C52    O346      0.77234      .   S
    C96    O347      0.87903      .   S
    C8     O347      0.87903      .   S
    C118   O348      0.87781  1_655   S
    C8     O348      0.87781      .   S
    C119   O349      0.87740  1_655   S
    C9     O349      0.87740      .   S
    C117   O350      0.87743      .   S
    C11    O350      0.87743      .   S
    C116   O351      0.87742      .   S
    C10    O351      0.87742      .   S
    C107   O352      0.76795      .   S
    C59    O352      0.76795      .   S
    C106   O353      0.76795      .   S
    C58    O353      0.76795      .   S
    C105   O354      0.76795      .   S
    C57    O354      0.76795      .   S
    C104   O355      0.76795      .   S
    C56    O355      0.76795      .   S
    C0     O356      0.88015      .   S
    C112   O356      0.88015      .   S
    C0     O357      0.87811      .   S
    C170   O357      0.87811      .   S
    C55    O358      0.77230      .   S
    C127   O358      0.77230      .   S
    C55    O359      0.76987      .   S
    C111   O359      0.76987      .   S
    C54    O360      0.77229      .   S
    C126   O360      0.77229      .   S
    C54    O361      0.76987      .   S
    C110   O361      0.76987      .   S
    C53    O362      0.77230      .   S
    C125   O362      0.77230      .   S
    C53    O363      0.76987      .   S
    C109   O363      0.76987      .   S
    C52    O364      0.77230      .   S
    C124   O364      0.77230      .   S
    C52    O365      0.77033      .   S
    C108   O365      0.77033      .   S
    C1     O366      0.88015      .   S
    C113   O366      0.88015      .   S
    C1     O367      0.87811      .   S
    C171   O367      0.87811      .   S
    C2     O368      0.88015      .   S
    C114   O368      0.88015      .   S
    C2     O369      0.87807      .   S
    C168   O369      0.87807  1_455   S
    C3     O370      0.88015      .   S
    C115   O370      0.88015      .   S
    C3     O371      0.87807      .   S
    C169   O371      0.87807  1_455   S
    C114   O372      0.77038      .   S
    C58    O372      0.77038      .   S
    C112   O373      0.77038      .   S
    C56    O373      0.77038      .   S
    C113   O374      0.77038      .   S
    C57    O374      0.77038      .   S
    C115   O375      0.77038      .   S
    C59    O375      0.77038      .   S
    C135   O376      0.88098      .   S
    C9     O376      0.88098  1_455   S
    C135   O377      0.77376  1_565   S
    C58    O377      0.77376      .   S
    C134   O378      0.88099      .   S
    C8     O378      0.88099  1_455   S
    C134   O379      0.77368      .   S
    C59    O379      0.77368      .   S
    C133   O380      0.88102      .   S
    C11    O380      0.88102      .   S
    C133   O381      0.77376  1_565   S
    C56    O381      0.77376      .   S
    C132   O382      0.88102      .   S
    C10    O382      0.88102      .   S
    C132   O383      0.77368      .   S
    C57    O383      0.77368      .   S
    C8     O384      0.87658      .   S
    C156   O384      0.87658      .   S
    C11    O385      0.87658      .   S
    C159   O385      0.87658      .   S
    C10    O386      0.87658      .   S
    C158   O386      0.87658      .   S
    C9     O387      0.87658      .   S
    C157   O387      0.87658      .   S
    C59    O388      0.77195      .   S
    C122   O388      0.77195      .   S
    C58    O389      0.77195      .   S
    C123   O389      0.77195  1_565   S
    C57    O390      0.77195      .   S
    C120   O390      0.77195      .   S
    C56    O391      0.77195      .   S
    C121   O391      0.77195  1_565   S
    C110   O392      0.87700      .   S
    C22    O392      0.87700      .   S
    C109   O393      0.87700      .   S
    C21    O393      0.87700      .   S
    C111   O394      0.87700      .   S
    C23    O394      0.87700      .   S
    C108   O395      0.87650      .   S
    C20    O395      0.87650      .   S
    C169   O396      0.77253  1_455   S
    C71    O396      0.77253      .   S
    C168   O397      0.77253  1_455   S
    C70    O397      0.77253      .   S
    C171   O398      0.77253      .   S
    C69    O398      0.77253      .   S
    C170   O399      0.77253      .   S
    C68    O399      0.77253      .   S
    C123   O400      0.87871  1_565   S
    C14    O400      0.87871      .   S
    C122   O401      0.87865      .   S
    C15    O401      0.87865      .   S
    C121   O402      0.87871  1_565   S
    C12    O402      0.87871      .   S
    C120   O403      0.87865      .   S
    C13    O403      0.87865      .   S
    C159   O404      0.77030      .   S
    C67    O404      0.77030      .   S
    C158   O405      0.77031      .   S
    C66    O405      0.77031      .   S
    C157   O406      0.77030      .   S
    C65    O406      0.77030      .   S
    C156   O407      0.77031      .   S
    C64    O407      0.77031      .   S
    C71    O408      0.77367      .   S
    C181   O408      0.77367  1_455   S
    C71    O409      0.77040      .   S
    C163   O409      0.77040      .   S
    C71    O410      0.76791      .   S
    C155   O410      0.76791      .   S
    C70    O411      0.77367      .   S
    C180   O411      0.77367  1_455   S
    C70    O412      0.77039      .   S
    C162   O412      0.77039      .   S
    C70    O413      0.76790      .   S
    C154   O413      0.76790      .   S
    C69    O414      0.77370      .   S
    C183   O414      0.77370      .   S
    C69    O415      0.77040      .   S
    C161   O415      0.77040      .   S
    C69    O416      0.76790      .   S
    C153   O416      0.76790      .   S
    C68    O417      0.77370      .   S
    C182   O417      0.77370      .   S
    C68    O418      0.77039      .   S
    C160   O418      0.77039      .   S
    C68    O419      0.76791      .   S
    C152   O419      0.76791      .   S
    C23    O420      0.88110  1_565   S
    C182   O420      0.88110      .   S
    C23    O421      0.87748      .   S
    C166   O421      0.87748  1_545   S
    C23    O422      0.87902      .   S
    C147   O422      0.87902      .   S
    C22    O423      0.88101      .   S
    C183   O423      0.88101      .   S
    C22    O424      0.87747      .   S
    C167   O424      0.87747      .   S
    C22    O425      0.87902      .   S
    C146   O425      0.87902      .   S
    C21    O426      0.88110  1_565   S
    C180   O426      0.88110      .   S
    C21    O427      0.87748      .   S
    C164   O427      0.87748  1_545   S
    C21    O428      0.87902      .   S
    C145   O428      0.87902      .   S
    C20    O429      0.88100      .   S
    C181   O429      0.88100      .   S
    C20    O430      0.87748      .   S
    C165   O430      0.87748      .   S
    C20    O431      0.87902      .   S
    C144   O431      0.87902      .   S
    C160   O432      0.88013      .   S
    C12    O432      0.88013      .   S
    C161   O433      0.88013      .   S
    C13    O433      0.88013      .   S
    C162   O434      0.88013      .   S
    C14    O434      0.88013      .   S
    C163   O435      0.88013      .   S
    C15    O435      0.88013      .   S
    C174   O436      0.77228      .   S
    C66    O436      0.77228      .   S
    C174   O437      0.87946      .   S
    C18    O437      0.87946      .   S
    C173   O438      0.77228      .   S
    C65    O438      0.77228      .   S
    C173   O439      0.87946      .   S
    C17    O439      0.87946      .   S
    C172   O440      0.77228      .   S
    C64    O440      0.77228      .   S
    C172   O441      0.87946      .   S
    C16    O441      0.87946      .   S
    C175   O442      0.77228      .   S
    C67    O442      0.77228      .   S
    C175   O443      0.87946      .   S
    C19    O443      0.87946      .   S
    C15    O444      0.87710      .   S
    C151   O444      0.87710      .   S
    C15    O445      0.87738      .   S
    C286   O445      0.87738      .   S
    C14    O446      0.87709      .   S
    C150   O446      0.87709      .   S
    C14    O447      0.87745  1_545   S
    C287   O447      0.87745      .   S
    C13    O448      0.87710      .   S
    C149   O448      0.87710      .   S
    C13    O449      0.87738      .   S
    C284   O449      0.87738      .   S
    C12    O450      0.87710      .   S
    C148   O450      0.87710      .   S
    C12    O451      0.87745  1_545   S
    C285   O451      0.87745      .   S
    C65    O452      0.77235      .   S
    C145   O452      0.77235      .   S
    C65    O453      0.76978      .   S
    C179   O453      0.76978  1_655   S
    C64    O454      0.77235      .   S
    C144   O454      0.77235      .   S
    C64    O455      0.76979      .   S
    C178   O455      0.76979  1_655   S
    C66    O456      0.77235      .   S
    C146   O456      0.77235      .   S
    C66    O457      0.76982      .   S
    C176   O457      0.76982      .   S
    C67    O458      0.77235      .   S
    C147   O458      0.77235      .   S
    C67    O459      0.76982      .   S
    C177   O459      0.76982      .   S
    C152   O460      0.87889      .   S
    C18    O460      0.87889      .   S
    C153   O461      0.87889      .   S
    C19    O461      0.87889      .   S
    C154   O462      0.87883  1_655   S
    C16    O462      0.87883      .   S
    C155   O463      0.87883  1_655   S
    C17    O463      0.87883      .   S
    C167   O464      0.77376      .   S
    C63    O464      0.77376      .   S
    C166   O465      0.77376      .   S
    C62    O465      0.77376      .   S
    C165   O466      0.77376      .   S
    C61    O466      0.77376      .   S
    C164   O467      0.77376      .   S
    C60    O467      0.77376      .   S
    C148   O468      0.76841      .   S
    C60    O468      0.76841      .   S
    C149   O469      0.76842      .   S
    C61    O469      0.76842      .   S
    C150   O470      0.76842      .   S
    C62    O470      0.76842      .   S
    C151   O471      0.76842      .   S
    C63    O471      0.76842      .   S
    C187   O472      0.87706      .   S
    C19    O472      0.87706      .   S
    C187   O473      0.76961      .   S
    C63    O473      0.76961      .   S
    C186   O474      0.87706      .   S
    C18    O474      0.87706      .   S
    C186   O475      0.76961      .   S
    C62    O475      0.76961      .   S
    C185   O476      0.87706      .   S
    C17    O476      0.87706      .   S
    C185   O477      0.76961      .   S
    C61    O477      0.76961      .   S
    C184   O478      0.87706      .   S
    C16    O478      0.87706      .   S
    C184   O479      0.76961      .   S
    C60    O479      0.76961      .   S
    C19    O480      0.87726      .   S
    C275   O480      0.87726      .   S
    C16    O481      0.87726      .   S
    C272   O481      0.87726      .   S
    C17    O482      0.87726      .   S
    C273   O482      0.87726      .   S
    C18    O483      0.87726      .   S
    C274   O483      0.87726      .   S
    C60    O484      0.77116      .   S
    C188   O484      0.77116      .   S
    C61    O485      0.77116      .   S
    C189   O485      0.77116      .   S
    C62    O486      0.77116      .   S
    C190   O486      0.77116      .   S
    C63    O487      0.77116      .   S
    C191   O487      0.77116      .   S
    C179   O488      0.87705      .   S
    C43    O488      0.87705      .   S
    C178   O489      0.87705      .   S
    C42    O489      0.87705      .   S
    C177   O490      0.87705      .   S
    C41    O490      0.87705      .   S
    C176   O491      0.87705      .   S
    C40    O491      0.87705      .   S
    C287   O492      0.77116      .   S
    C87    O492      0.77116      .   S
    C286   O493      0.77116      .   S
    C86    O493      0.77116      .   S
    C285   O494      0.77116      .   S
    C85    O494      0.77116      .   S
    C284   O495      0.77116      .   S
    C84    O495      0.77116      .   S
    C191   O496      0.87733      .   S
    C38    O496      0.87733      .   S
    C190   O497      0.87740      .   S
    C39    O497      0.87740  1_565   S
    C189   O498      0.87734      .   S
    C36    O498      0.87734      .   S
    C188   O499      0.87740      .   S
    C37    O499      0.87740  1_565   S
    C274   O500      0.76978      .   S
    C88    O500      0.76978      .   S
    C273   O501      0.76974  1_455   S
    C91    O501      0.76974      .   S
    C272   O502      0.76974  1_455   S
    C90    O502      0.76974      .   S
    C275   O503      0.76978      .   S
    C89    O503      0.76978      .   S
    C86    O504      0.76956      .   S
    C282   O504      0.76956      .   S
    C86    O505      0.76842      .   S
    C246   O505      0.76842      .   S
    C86    O506      0.77360      .   S
    C262   O506      0.77360      .   S
    C85    O507      0.76956      .   S
    C281   O507      0.76956      .   S
    C85    O508      0.76842      .   S
    C245   O508      0.76842      .   S
    C85    O509      0.77360      .   S
    C261   O509      0.77360      .   S
    C84    O510      0.76956      .   S
    C280   O510      0.76956      .   S
    C84    O511      0.76842      .   S
    C244   O511      0.76842      .   S
    C84    O512      0.77370      .   S
    C260   O512      0.77370      .   S
    C87    O513      0.76956      .   S
    C283   O513      0.76956      .   S
    C87    O514      0.76842      .   S
    C247   O514      0.76842      .   S
    C87    O515      0.77370      .   S
    C263   O515      0.77370      .   S
    C43    O516      0.87706      .   S
    C283   O516      0.87706      .   S
    C43    O517      0.87892      .   S
    C249   O517      0.87892  1_455   S
    C43    O518      0.87941      .   S
    C271   O518      0.87941      .   S
    C42    O519      0.87706      .   S
    C282   O519      0.87706      .   S
    C42    O520      0.87894      .   S
    C248   O520      0.87894  1_455   S
    C42    O521      0.87941      .   S
    C270   O521      0.87941      .   S
    C41    O522      0.87706      .   S
    C281   O522      0.87706      .   S
    C41    O523      0.87899      .   S
    C251   O523      0.87899      .   S
    C41    O524      0.87941      .   S
    C269   O524      0.87941      .   S
    C40    O525      0.87706      .   S
    C280   O525      0.87706      .   S
    C40    O526      0.87899      .   S
    C250   O526      0.87899      .   S
    C40    O527      0.87941      .   S
    C268   O527      0.87941      .   S
    C246   O528      0.87709      .   S
    C38    O528      0.87709      .   S
    C245   O529      0.87710      .   S
    C37    O529      0.87710      .   S
    C244   O530      0.87709      .   S
    C36    O530      0.87709      .   S
    C247   O531      0.87710      .   S
    C39    O531      0.87710      .   S
    C242   O532      0.77231      .   S
    C90    O532      0.77231      .   S
    C242   O533      0.87903      .   S
    C46    O533      0.87903      .   S
    C240   O534      0.77231      .   S
    C88    O534      0.77231      .   S
    C240   O535      0.87903      .   S
    C44    O535      0.87903      .   S
    C243   O536      0.77231      .   S
    C91    O536      0.77231      .   S
    C243   O537      0.87902      .   S
    C47    O537      0.87902      .   S
    C241   O538      0.77231      .   S
    C89    O538      0.77231      .   S
    C241   O539      0.87902      .   S
    C45    O539      0.87902      .   S
    C262   O540      0.87758      .   S
    C47    O540      0.87758      .   S
    C261   O541      0.87758  1_565   S
    C44    O541      0.87758      .   S
    C260   O542      0.87748      .   S
    C45    O542      0.87748      .   S
    C263   O543      0.87747  1_565   S
    C46    O543      0.87747      .   S
    C251   O544      0.76790      .   S
    C95    O544      0.76790      .   S
    C250   O545      0.76791      .   S
    C94    O545      0.76791      .   S
    C249   O546      0.76791      .   S
    C93    O546      0.76791      .   S
    C248   O547      0.76790      .   S
    C92    O547      0.76790      .   S
    C88    O548      0.77220      .   S
    C268   O548      0.77220      .   S
    C88    O549      0.77037      .   S
    C252   O549      0.77037      .   S
    C89    O550      0.77220      .   S
    C269   O550      0.77220      .   S
    C89    O551      0.77037      .   S
    C253   O551      0.77037      .   S
    C90    O552      0.77219      .   S
    C270   O552      0.77219      .   S
    C90    O553      0.77038      .   S
    C254   O553      0.77038      .   S
    C91    O554      0.77220      .   S
    C271   O554      0.77220      .   S
    C91    O555      0.77037      .   S
    C255   O555      0.77037      .   S
    C36    O556      0.88011      .   S
    C256   O556      0.88011      .   S
    C36    O557      0.87872      .   S
    C217   O557      0.87872      .   S
    C37    O558      0.88010      .   S
    C257   O558      0.88010      .   S
    C37    O559      0.87878      .   S
    C216   O559      0.87878  1_545   S
    C38    O560      0.88011      .   S
    C258   O560      0.88011      .   S
    C38    O561      0.87872      .   S
    C219   O561      0.87872      .   S
    C39    O562      0.88010      .   S
    C259   O562      0.88010      .   S
    C39    O563      0.87878      .   S
    C218   O563      0.87878  1_545   S
    C259   O564      0.77040      .   S
    C95    O564      0.77040      .   S
    C256   O565      0.77039      .   S
    C92    O565      0.77039      .   S
    C257   O566      0.77040      .   S
    C93    O566      0.77040      .   S
    C258   O567      0.77039      .   S
    C94    O567      0.77039      .   S
    C279   O568      0.88109      .   S
    C46    O568      0.88109  1_545   S
    C279   O569      0.77365  1_655   S
    C93    O569      0.77365      .   S
    C278   O570      0.88099      .   S
    C47    O570      0.88099      .   S
    C278   O571      0.77366  1_655   S
    C92    O571      0.77366      .   S
    C277   O572      0.88108      .   S
    C44    O572      0.88108  1_545   S
    C277   O573      0.77368      .   S
    C95    O573      0.77368      .   S
    C276   O574      0.88100      .   S
    C45    O574      0.88100      .   S
    C276   O575      0.77368      .   S
    C94    O575      0.77368      .   S
    C44    O576      0.87657      .   S
    C204   O576      0.87657      .   S
    C45    O577      0.87657      .   S
    C205   O577      0.87657      .   S
    C46    O578      0.87657      .   S
    C206   O578      0.87657      .   S
    C47    O579      0.87657      .   S
    C207   O579      0.87657      .   S
    C94    O580      0.77198      .   S
    C264   O580      0.77198      .   S
    C95    O581      0.77198      .   S
    C265   O581      0.77198      .   S
    C93    O582      0.77198      .   S
    C267   O582      0.77198  1_655   S
    C92    O583      0.77198      .   S
    C266   O583      0.77198  1_655   S
    C255   O584      0.87658      .   S
    C35    O584      0.87658      .   S
    C252   O585      0.87658      .   S
    C32    O585      0.87658      .   S
    C253   O586      0.87658      .   S
    C33    O586      0.87658      .   S
    C254   O587      0.87658      .   S
    C34    O587      0.87658      .   S
    C216   O588      0.77195  1_545   S
    C81    O588      0.77195      .   S
    C217   O589      0.77195      .   S
    C80    O589      0.77195      .   S
    C218   O590      0.77195  1_545   S
    C83    O590      0.77195      .   S
    C219   O591      0.77195      .   S
    C82    O591      0.77195      .   S
    C264   O592      0.87873      .   S
    C26    O592      0.87873      .   S
    C265   O593      0.87873      .   S
    C27    O593      0.87873      .   S
    C266   O594      0.87869  1_655   S
    C24    O594      0.87869      .   S
    C267   O595      0.87869  1_655   S
    C25    O595      0.87869      .   S
    C206   O596      0.77033      .   S
    C78    O596      0.77033      .   S
    C204   O597      0.77033      .   S
    C76    O597      0.77033      .   S
    C205   O598      0.77033      .   S
    C77    O598      0.77033      .   S
    C207   O599      0.77033      .   S
    C79    O599      0.77033      .   S
    C81    O600      0.77375      .   S
    C228   O600      0.77375  1_545   S
    C81    O601      0.77039      .   S
    C209   O601      0.77039      .   S
    C81    O602      0.76790      .   S
    C201   O602      0.76790      .   S
    C80    O603      0.77366      .   S
    C229   O603      0.77366      .   S
    C80    O604      0.77039      .   S
    C208   O604      0.77039      .   S
    C80    O605      0.76746      .   S
    C200   O605      0.76746      .   S
    C82    O606      0.77366      .   S
    C231   O606      0.77366      .   S
    C82    O607      0.77039      .   S
    C210   O607      0.77039      .   S
    C82    O608      0.76790      .   S
    C202   O608      0.76790      .   S
    C83    O609      0.77374      .   S
    C230   O609      0.77374  1_545   S
    C83    O610      0.77039      .   S
    C211   O610      0.77039      .   S
    C83    O611      0.76746      .   S
    C203   O611      0.76746      .   S
    C35    O612      0.88097  1_655   S
    C229   O612      0.88097      .   S
    C35    O613      0.87740      .   S
    C213   O613      0.87740  1_455   S
    C35    O614      0.87903      .   S
    C195   O614      0.87903      .   S
    C34    O615      0.88097  1_655   S
    C228   O615      0.88097      .   S
    C34    O616      0.87740      .   S
    C212   O616      0.87740  1_455   S
    C34    O617      0.87903      .   S
    C194   O617      0.87903      .   S
    C33    O618      0.88101      .   S
    C231   O618      0.88101      .   S
    C33    O619      0.87742      .   S
    C215   O619      0.87742      .   S
    C33    O620      0.87903      .   S
    C193   O620      0.87903      .   S
    C32    O621      0.88101      .   S
    C230   O621      0.88101      .   S
    C32    O622      0.87742      .   S
    C214   O622      0.87742      .   S
    C32    O623      0.87903      .   S
    C192   O623      0.87903      .   S
    C208   O624      0.87827      .   S
    C24    O624      0.87827      .   S
    C209   O625      0.87827      .   S
    C25    O625      0.87827      .   S
    C210   O626      0.87827      .   S
    C26    O626      0.87827      .   S
    C211   O627      0.87827      .   S
    C27    O627      0.87827      .   S
    C223   O628      0.77230      .   S
    C79    O628      0.77230      .   S
    C223   O629      0.87944      .   S
    C31    O629      0.87944      .   S
    C220   O630      0.77229      .   S
    C76    O630      0.77229      .   S
    C220   O631      0.87945      .   S
    C28    O631      0.87945      .   S
    C222   O632      0.77229      .   S
    C78    O632      0.77229      .   S
    C222   O633      0.87945      .   S
    C30    O633      0.87945      .   S
    C221   O634      0.77230      .   S
    C77    O634      0.77230      .   S
    C221   O635      0.87944      .   S
    C29    O635      0.87944      .   S
    C79    O636      0.77231      .   S
    C195   O636      0.77231      .   S
    C79    O637      0.76984      .   S
    C226   O637      0.76984      .   S
    C78    O638      0.77232      .   S
    C194   O638      0.77232      .   S
    C78    O639      0.76990      .   S
    C227   O639      0.76990  1_565   S
    C77    O640      0.77231      .   S
    C193   O640      0.77231      .   S
    C77    O641      0.76984      .   S
    C224   O641      0.76984      .   S
    C76    O642      0.77232      .   S
    C192   O642      0.77232      .   S
    C76    O643      0.76989      .   S
    C225   O643      0.76989  1_565   S
    C24    O644      0.87710      .   S
    C196   O644      0.87710      .   S
    C24    O645      0.87724  1_455   S
    C142   O645      0.87724      .   S
    C25    O646      0.87710      .   S
    C197   O646      0.87710      .   S
    C25    O647      0.87724  1_455   S
    C143   O647      0.87724      .   S
    C26    O648      0.87710      .   S
    C198   O648      0.87710      .   S
    C26    O649      0.87727      .   S
    C140   O649      0.87727      .   S
    C27    O650      0.87710      .   S
    C199   O650      0.87710      .   S
    C27    O651      0.87728      .   S
    C141   O651      0.87728      .   S
    C203   O652      0.87930  1_565   S
    C30    O652      0.87930      .   S
    C200   O653      0.87924      .   S
    C29    O653      0.87924      .   S
    C201   O654      0.87891  1_565   S
    C28    O654      0.87891      .   S
    C202   O655      0.87885      .   S
    C31    O655      0.87885      .   S
    C213   O656      0.77379      .   S
    C73    O656      0.77379      .   S
    C215   O657      0.77380      .   S
    C75    O657      0.77380      .   S
    C214   O658      0.77380      .   S
    C74    O658      0.77380      .   S
    C212   O659      0.77380      .   S
    C72    O659      0.77380      .   S
    C197   O660      0.76840      .   S
    C73    O660      0.76840      .   S
    C196   O661      0.76839      .   S
    C72    O661      0.76839      .   S
    C198   O662      0.76839      .   S
    C74    O662      0.76839      .   S
    C199   O663      0.76840      .   S
    C75    O663      0.76840      .   S
    C235   O664      0.87702      .   S
    C31    O664      0.87702      .   S
    C235   O665      0.76954      .   S
    C75    O665      0.76954      .   S
    C232   O666      0.87702      .   S
    C28    O666      0.87702      .   S
    C232   O667      0.76955      .   S
    C72    O667      0.76955      .   S
    C233   O668      0.87702      .   S
    C29    O668      0.87702      .   S
    C233   O669      0.76954      .   S
    C73    O669      0.76954      .   S
    C234   O670      0.87702      .   S
    C30    O670      0.87702      .   S
    C234   O671      0.76954      .   S
    C74    O671      0.76954      .   S
