# CIF file generated by openbabel 2.4.90, see http://openbabel.sf.net
data_I
_chemical_name_common ''
_cell_length_a 19.824
_cell_length_b 20.617
_cell_length_c 13.36
_cell_angle_alpha 74.154
_cell_angle_beta 79.598
_cell_angle_gamma 61.879
_space_group_name_H-M_alt 'P 1'
_space_group_name_Hall 'P 1'
loop_
    _symmetry_equiv_pos_as_xyz
    x,y,z
loop_
    _atom_site_label
    _atom_site_type_symbol
    _atom_site_fract_x
    _atom_site_fract_y
    _atom_site_fract_z
    _atom_site_occupancy
    Zn0     Zn   0.26611   0.79029   0.71877   1.000
    Zn1     Zn   0.76611   0.29028   0.71877   1.000
    Zn2     Zn   0.76611   0.79029   0.71877   1.000
    Zn3     Zn   0.42403   0.44195   0.87337   1.000
    Zn4     Zn   0.42403   0.94196   0.87337   1.000
    Zn5     Zn   0.92403   0.44195   0.87337   1.000
    Zn6     Zn   0.92402   0.94196   0.87337   1.000
    Zn7     Zn   0.23345   0.21022   0.28119   1.000
    Zn8     Zn   0.23345   0.71023   0.28119   1.000
    Zn9     Zn   0.73345   0.21022   0.28119   1.000
    Zn10    Zn   0.73344   0.71023   0.28119   1.000
    Zn11    Zn   0.07546   0.05874   0.12639   1.000
    Zn12    Zn   0.07546   0.55876   0.12639   1.000
    Zn13    Zn   0.57546   0.05874   0.12639   1.000
    Zn14    Zn   0.57546   0.55876   0.12639   1.000
    Zn15    Zn   0.24960   0.25049   0.30000   1.000
    Zn16    Zn   0.24960   0.75050   0.40000   1.000
    Zn17    Zn   0.74960   0.25049   0.30000   1.000
    Zn18    Zn   0.74960   0.75050   0.30000   1.000
    Zn19    Zn   0.26611   0.29028   0.71877   1.000
    C20     C    0.25445   0.35743   0.50155   1.000
    C21     C    0.25445   0.85744   0.50155   1.000
    C22     C    0.75445   0.35743   0.50155   1.000
    C23     C    0.75444   0.85744   0.50155   1.000
    C24     C    0.43007   0.41212   0.11045   1.000
    C25     C    0.43007   0.91213   0.11045   1.000
    C26     C    0.93007   0.41212   0.11045   1.000
    C27     C    0.93007   0.91213   0.11045   1.000
    O28     O    0.18365   0.38869   0.50821   1.000
    O29     O    0.18365   0.88870   0.50821   1.000
    O30     O    0.68365   0.38870   0.50821   1.000
    O31     O    0.68365   0.88870   0.50821   1.000
    O32     O    0.98903   0.41678   0.11674   1.000
    C33     C    0.24544   0.14271   0.49840   1.000
    C34     C    0.24544   0.64272   0.49840   1.000
    C35     C    0.74544   0.14271   0.49840   1.000
    C36     C    0.74543   0.64272   0.49840   1.000
    C37     C    0.06979   0.08807   0.88900   1.000
    C38     C    0.06979   0.58808   0.88900   1.000
    C39     C    0.56978   0.08807   0.88900   1.000
    C40     C    0.56978   0.58808   0.88900   1.000
    O41     O    0.30072   0.31187   0.57487   1.000
    O42     O    0.30072   0.81188   0.57487   1.000
    O43     O    0.80071   0.31187   0.57487   1.000
    O44     O    0.80071   0.81188   0.57487   1.000
    O45     O    0.98902   0.91679   0.11674   1.000
    O46     O    0.48902   0.41678   0.11674   1.000
    O47     O    0.48902   0.91679   0.11674   1.000
    O48     O    0.40001   0.41870   0.02778   1.000
    O49     O    0.40000   0.91871   0.02778   1.000
    O50     O    0.90000   0.41870   0.02778   1.000
    O51     O    0.90000   0.91871   0.02778   1.000
    O52     O    0.19914   0.18837   0.42515   1.000
    O53     O    0.19913   0.68838   0.42515   1.000
    O54     O    0.69913   0.18837   0.42515   1.000
    O55     O    0.69913   0.68838   0.42515   1.000
    O56     O    0.31623   0.11142   0.49170   1.000
    O57     O    0.31623   0.61143   0.49170   1.000
    O58     O    0.81623   0.11142   0.49170   1.000
    O59     O    0.81623   0.61143   0.49170   1.000
    O60     O    0.51095   0.08318   0.88331   1.000
    O61     O    0.51095   0.58319   0.88331   1.000
    O62     O    0.00000   0.08318   0.88331   1.000
    O63     O    0.00000   0.58319   0.88331   1.000
    O64     O    0.09971   0.08184   0.97210   1.000
    O65     O    0.09971   0.58185   0.97210   1.000
    O66     O    0.59971   0.08184   0.97210   1.000
    O67     O    0.59970   0.58185   0.97210   1.000
    Ts68    Ts   0.23081   0.80464   0.74232   1.000
    Ts69    Ts   0.28513   0.80055   0.74479   1.000
    Ts70    Ts   0.27954   0.75325   0.74257   1.000
    Ts71    Ts   0.73081   0.30464   0.74232   1.000
    Ts72    Ts   0.78512   0.30054   0.74479   1.000
    Ts73    Ts   0.77954   0.25324   0.74257   1.000
    Ts74    Ts   0.73081   0.80464   0.74232   1.000
    Ts75    Ts   0.78512   0.80055   0.74479   1.000
    Ts76    Ts   0.77953   0.75325   0.74257   1.000
    Ts77    Ts   0.40771   0.42127   0.86553   1.000
    Ts78    Ts   0.46216   0.42551   0.86348   1.000
    Ts79    Ts   0.40345   0.47962   0.86442   1.000
    Ts80    Ts   0.40771   0.92128   0.86553   1.000
    Ts81    Ts   0.46215   0.92552   0.86348   1.000
    Ts82    Ts   0.40345   0.97962   0.86442   1.000
    Ts83    Ts   0.90771   0.42127   0.86553   1.000
    Ts84    Ts   0.96215   0.42551   0.86348   1.000
    Ts85    Ts   0.90345   0.47962   0.86442   1.000
    Ts86    Ts   0.96215   0.92552   0.86348   1.000
    Ts87    Ts   0.90770   0.92128   0.86553   1.000
    Ts88    Ts   0.90344   0.97962   0.86442   1.000
    Ts89    Ts   0.26874   0.19590   0.25759   1.000
    Ts90    Ts   0.21445   0.19996   0.25517   1.000
    Ts91    Ts   0.26874   0.69591   0.25759   1.000
    Ts92    Ts   0.21445   0.69997   0.25517   1.000
    Ts93    Ts   0.21998   0.74730   0.25740   1.000
    Ts94    Ts   0.76873   0.19590   0.25759   1.000
    Ts95    Ts   0.71445   0.19996   0.25517   1.000
    Ts96    Ts   0.76873   0.69591   0.25759   1.000
    Ts97    Ts   0.71445   0.69997   0.25517   1.000
    Ts98    Ts   0.03734   0.07517   0.13625   1.000
    Ts99    Ts   0.09182   0.07937   0.13428   1.000
    Ts100   Ts   0.09602   0.02106   0.13542   1.000
    Ts101   Ts   0.03734   0.57518   0.13625   1.000
    Ts102   Ts   0.09182   0.57938   0.13428   1.000
    Ts103   Ts   0.09602   0.52106   0.13542   1.000
    Ts104   Ts   0.53734   0.07517   0.13625   1.000
    Ts105   Ts   0.59182   0.07937   0.13428   1.000
    Ts106   Ts   0.59602   0.02105   0.13542   1.000
    Ts107   Ts   0.53734   0.57518   0.13625   1.000
    Ts108   Ts   0.59182   0.57938   0.13428   1.000
    Ts109   Ts   0.59602   0.52106   0.13542   1.000
    Ts110   Ts   0.23075   0.27413   0.26994   1.000
    Ts111   Ts   0.73074   0.27413   0.26994   1.000
    Ts112   Ts   0.73074   0.77414   0.26994   1.000
    Ts113   Ts   0.23081   0.30464   0.74232   1.000
    Ts114   Ts   0.28513   0.30054   0.74479   1.000
    Ts115   Ts   0.27954   0.25324   0.74257   1.000
    Og116   Og   0.26895   0.36205   0.46724   1.000
    Og117   Og   0.26895   0.86206   0.46724   1.000
    Og118   Og   0.76895   0.36205   0.46724   1.000
    Og119   Og   0.76895   0.86206   0.46724   1.000
    Og120   Og   0.41458   0.40719   0.14355   1.000
    Og121   Og   0.41458   0.90720   0.14355   1.000
    Og122   Og   0.91458   0.40719   0.14355   1.000
    Og123   Og   0.91458   0.90720   0.14355   1.000
    Og124   Og   0.23095   0.13807   0.53271   1.000
    Og125   Og   0.23094   0.63807   0.53271   1.000
    Og126   Og   0.73094   0.13807   0.53271   1.000
    Og127   Og   0.73094   0.63807   0.53271   1.000
    Og128   Og   0.08529   0.09297   0.85606   1.000
    Og129   Og   0.08529   0.59298   0.85606   1.000
    Og130   Og   0.58529   0.09297   0.85606   1.000
    Og131   Og   0.58528   0.59298   0.85606   1.000
loop_
    _geom_bond_atom_site_label_1
    _geom_bond_atom_site_label_2
    _geom_bond_distance
    _geom_bond_site_symmetry_2
    _ccdc_geom_bond_type
    O49    C25       1.29353      .   S
    O49    Zn4       2.00815  1_554   S
    O51    C27       1.29352      .   S
    O51    Zn6       2.00814  1_554   S
    O50    C26       1.29352      .   S
    O50    Zn5       2.00814  1_554   S
    O48    C24       1.29352      .   S
    O48    Zn3       2.00814  1_554   S
    C24    O46       1.23595      .   S
    C27    O45       1.23613      .   S
    C26    O32       1.23615      .   S
    C25    O47       1.23595      .   S
    Zn11   O64       2.00717  1_554   S
    Zn12   O65       2.00717  1_554   S
    Zn13   O66       2.00717  1_554   S
    Zn14   O67       2.00717  1_554   S
    Zn7    O52       1.92565      .   S
    Zn7    Zn15      1.11733      .   S
    Zn8    Zn16      2.11303      .   S
    Zn9    O54       1.92565      .   S
    Zn9    Zn17      1.11731      .   S
    Zn10   O55       1.92565      .   S
    Zn10   Zn18      1.11731      .   S
    O55    C36       1.30124      .   S
    O54    C35       1.30124      .   S
    O53    C34       1.30124      .   S
    O53    Zn16      1.89884      .   S
    O52    C33       1.30124      .   S
    O56    C33       1.23549      .   S
    O57    C34       1.23549      .   S
    O58    C35       1.23549      .   S
    O59    C36       1.23549      .   S
    C21    O29       1.23552      .   S
    C21    O42       1.30114      .   S
    C20    O28       1.23554      .   S
    C20    O41       1.30114      .   S
    C22    O30       1.23554      .   S
    C22    O43       1.30114      .   S
    C23    O31       1.23554      .   S
    C23    O44       1.30113      .   S
    O42    Zn0       1.92590      .   S
    O44    Zn2       1.92590      .   S
    O43    Zn1       1.92590      .   S
    O41    Zn19      1.92590      .   S
    O63    C38       1.45032      .   S
    O62    C37       1.45036      .   S
    O61    C40       1.23418      .   S
    O60    C39       1.23420      .   S
    C40    O67       1.29962      .   S
    C39    O66       1.29962      .   S
    C38    O65       1.29962      .   S
    C37    O64       1.29962      .   S
    O52    Zn15      2.20708      .   S
    O53    Zn8       1.92565      .   S
    O54    Zn17      2.20707      .   S
    O55    Zn18      2.20708      .   S
    Zn0    Ts68      0.67259      .   S
    Zn0    Ts69      0.68588      .   S
    Zn0    Ts70      0.67922      .   S
    Zn1    Ts71      0.67259      .   S
    Zn1    Ts72      0.68587      .   S
    Zn1    Ts73      0.67922      .   S
    Zn2    Ts74      0.67258      .   S
    Zn2    Ts75      0.68588      .   S
    Zn2    Ts76      0.67922      .   S
    Zn3    Ts77      0.68121      .   S
    Zn3    Ts78      0.67116      .   S
    Zn3    Ts79      0.67238      .   S
    Zn4    Ts80      0.68122      .   S
    Zn4    Ts81      0.67116      .   S
    Zn4    Ts82      0.67226      .   S
    Zn5    Ts83      0.68121      .   S
    Zn5    Ts84      0.67121      .   S
    Zn5    Ts85      0.67238      .   S
    Zn6    Ts86      0.67121      .   S
    Zn6    Ts87      0.68121      .   S
    Zn6    Ts88      0.67227      .   S
    Zn7    Ts89      0.67266      .   S
    Zn7    Ts90      0.68560      .   S
    Zn8    Ts91      0.67266      .   S
    Zn8    Ts92      0.68560      .   S
    Zn8    Ts93      0.67962      .   S
    Zn9    Ts94      0.67266      .   S
    Zn9    Ts95      0.68560      .   S
    Zn10   Ts96      0.67266      .   S
    Zn10   Ts97      0.68560      .   S
    Zn11   Ts98      0.67110      .   S
    Zn11   Ts99      0.68109      .   S
    Zn11   Ts100     0.67267      .   S
    Zn12   Ts101     0.67110      .   S
    Zn12   Ts102     0.68109      .   S
    Zn12   Ts103     0.67279      .   S
    Zn13   Ts104     0.67106      .   S
    Zn13   Ts105     0.68109      .   S
    Zn13   Ts106     0.67268      .   S
    Zn14   Ts107     0.67105      .   S
    Zn14   Ts108     0.68109      .   S
    Zn14   Ts109     0.67279      .   S
    Zn15   Ts110     0.56043      .   S
    Zn17   Ts111     0.56043      .   S
    Zn18   Ts112     0.56043      .   S
    Zn19   Ts113     0.67258      .   S
    Zn19   Ts114     0.68588      .   S
    Zn19   Ts115     0.67922      .   S
    C20    Og116     0.50627      .   S
    C21    Og117     0.50627      .   S
    C22    Og118     0.50627      .   S
    C23    Og119     0.50627      .   S
    C24    Og120     0.50602      .   S
    C25    Og121     0.50602      .   S
    C26    Og122     0.50602      .   S
    C27    Og123     0.50602      .   S
    C33    Og124     0.50626      .   S
    C34    Og125     0.50626      .   S
    C35    Og126     0.50626      .   S
    C36    Og127     0.50626      .   S
    C37    Og128     0.50445      .   S
    C38    Og129     0.50445      .   S
    C39    Og130     0.50445      .   S
    C40    Og131     0.50445      .   S
