# CIF file generated by openbabel 2.4.90, see http://openbabel.sf.net
data_I
_chemical_name_common ''
_cell_length_a 19.824
_cell_length_b 20.617
_cell_length_c 13.36
_cell_angle_alpha 74.154
_cell_angle_beta 79.598
_cell_angle_gamma 61.879
_space_group_name_H-M_alt 'P 1'
_space_group_name_Hall 'P 1'
loop_
    _symmetry_equiv_pos_as_xyz
    x,y,z
loop_
    _atom_site_label
    _atom_site_type_symbol
    _atom_site_fract_x
    _atom_site_fract_y
    _atom_site_fract_z
    _atom_site_occupancy
    C0      C    0.25445   0.35743   0.50155   1.000
    C1      C    0.25445   0.85744   0.50155   1.000
    C2      C    0.75445   0.35743   0.50155   1.000
    C3      C    0.75444   0.85744   0.50155   1.000
    C4      C    0.43007   0.41212   0.11045   1.000
    C5      C    0.43007   0.91213   0.11045   1.000
    C6      C    0.93007   0.41212   0.11045   1.000
    C7      C    0.93007   0.91213   0.11045   1.000
    C8      C    0.24544   0.14271   0.49840   1.000
    C9      C    0.24544   0.64272   0.49840   1.000
    C10     C    0.74544   0.14271   0.49840   1.000
    C11     C    0.74543   0.64272   0.49840   1.000
    C12     C    0.06979   0.08807   0.88900   1.000
    C13     C    0.06979   0.58808   0.88900   1.000
    C14     C    0.56978   0.08807   0.88900   1.000
    C15     C    0.56978   0.58808   0.88900   1.000
