# CIF file generated by openbabel 2.4.90, see http://openbabel.sf.net
data_I
_chemical_name_common ''
_cell_length_a 19.824
_cell_length_b 20.617
_cell_length_c 13.36
_cell_angle_alpha 74.154
_cell_angle_beta 79.598
_cell_angle_gamma 61.879
_space_group_name_H-M_alt 'P 1'
_space_group_name_Hall 'P 1'
loop_
    _symmetry_equiv_pos_as_xyz
    x,y,z
loop_
    _atom_site_label
    _atom_site_type_symbol
    _atom_site_fract_x
    _atom_site_fract_y
    _atom_site_fract_z
    _atom_site_occupancy
    N0      N    0.34041   0.88417   0.30314   1.000
    N1      N    0.84041   0.38448   0.30314   1.000
    N2      N    0.65952   0.61561   0.69683   1.000
    N3      N    0.16470   0.39085   0.15490   1.000
    N4      N    0.16469   0.89086   0.15490   1.000
    N5      N    0.34041   0.38448   0.30314   1.000
    N6      N    0.66469   0.39085   0.15490   1.000
    N7      N    0.09480   0.36181   0.84219   1.000
    N8      N    0.15111   0.15113   0.14993   1.000
    N9      N    0.83473   0.10975   0.84374   1.000
    N10     N    0.40470   0.63885   0.15655   1.000
    N11     N    0.84848   0.34940   0.85000   1.000
    N12     N    0.65111   0.65114   0.14993   1.000
    N13     N    0.59479   0.86182   0.84219   1.000
    N14     N    0.59479   0.36181   0.84219   1.000
    N15     N    0.65111   0.15113   0.14994   1.000
    N16     N    0.09480   0.86182   0.84219   1.000
    N17     N    0.33474   0.10975   0.84374   1.000
    N18     N    0.84041   0.88417   0.30314   1.000
    N19     N    0.84848   0.84941   0.85000   1.000
    N20     N    0.15111   0.65114   0.14993   1.000
    N21     N    0.33474   0.60976   0.84374   1.000
    N22     N    0.40471   0.13884   0.15654   1.000
    N23     N    0.90470   0.63885   0.15655   1.000
    N24     N    0.66469   0.89086   0.15490   1.000
    N25     N    0.90470   0.13884   0.15654   1.000
    N26     N    0.34849   0.84941   0.85000   1.000
    N27     N    0.83473   0.60976   0.84374   1.000
    N28     N    0.34849   0.34940   0.85000   1.000
    N29     N    0.15952   0.61561   0.69683   1.000
    N30     N    0.15952   0.11561   0.69683   1.000
    N31     N    0.65952   0.11561   0.69683   1.000
    Zr32    Zr   0.24877   0.68065   0.41929   1.000
    O33     O    0.21887   0.75450   0.30975   1.000
    O34     O    0.29716   0.67222   0.31023   1.000
    O35     O    0.21340   0.67682   0.30767   1.000
    O36     O    0.22019   0.65317   0.52132   1.000
    Zr37    Zr   0.75123   0.83708   0.57585   1.000
    O38     O    0.78086   0.75466   0.68748   1.000
    O39     O    0.70260   0.83695   0.68700   1.000
    O40     O    0.78639   0.83231   0.68988   1.000
    O41     O    0.77977   0.85567   0.47623   1.000
    Zr42    Zr   0.43578   0.42239   0.03209   1.000
    O43     O    0.39987   0.48825   0.94196   1.000
    O44     O    0.40490   0.40128   0.94394   1.000
    O45     O    0.48689   0.40597   0.94122   1.000
    O46     O    0.40470   0.40849   0.13185   1.000
    Zr47    Zr   0.74877   0.18064   0.39929   1.000
    O48     O    0.79715   0.17221   0.30022   1.000
    O49     O    0.71340   0.17681   0.29767   1.000
    O50     O    0.72089   0.25952   0.30210   1.000
    O51     O    0.72019   0.15316   0.51132   1.000
    Zr52    Zr   0.25123   0.33707   0.57585   1.000
    O53     O    0.28640   0.33230   0.68988   1.000
    O54     O    0.20261   0.33694   0.68700   1.000
    O55     O    0.28087   0.25465   0.68748   1.000
    O56     O    0.27977   0.35574   0.47623   1.000
    Zr57    Zr   0.06124   0.57797   0.96770   1.000
    O58     O    0.01136   0.59455   0.05828   1.000
    O59     O    0.09837   0.51225   0.05756   1.000
    O60     O    0.09340   0.59919   0.05589   1.000
    O61     O    0.09376   0.59175   0.86796   1.000
    Zr62    Zr   0.24877   0.18064   0.39929   1.000
    O63     O    0.29716   0.17221   0.30022   1.000
    O64     O    0.21340   0.17681   0.29767   1.000
    O65     O    0.22089   0.25952   0.30210   1.000
    O66     O    0.22019   0.15316   0.51132   1.000
    Zr67    Zr   0.74877   0.68065   0.39929   1.000
    O68     O    0.72088   0.75953   0.30210   1.000
    O69     O    0.71340   0.67682   0.29767   1.000
    O70     O    0.79715   0.67222   0.30023   1.000
    O71     O    0.72018   0.65317   0.51132   1.000
    Zr72    Zr   0.75123   0.33707   0.57585   1.000
    O73     O    0.77977   0.35574   0.47623   1.000
    O74     O    0.78639   0.33230   0.68988   1.000
    O75     O    0.70260   0.33694   0.68700   1.000
    O76     O    0.78086   0.25465   0.68748   1.000
    Zr77    Zr   0.93578   0.42239   0.03208   1.000
    O78     O    0.90470   0.40849   0.13185   1.000
    O79     O    0.98689   0.40597   0.94122   1.000
    O80     O    0.90490   0.40128   0.94394   1.000
    O81     O    0.89986   0.48825   0.94196   1.000
    Zr82    Zr   0.25123   0.83708   0.57585   1.000
    O83     O    0.20261   0.83695   0.68700   1.000
    O84     O    0.28086   0.75466   0.68748   1.000
    O85     O    0.28640   0.83231   0.68988   1.000
    O86     O    0.27977   0.85568   0.47623   1.000
    Zr87    Zr   0.06124   0.07796   0.96770   1.000
    O88     O    0.01137   0.09454   0.05828   1.000
    O89     O    0.09837   0.01225   0.05756   1.000
    O90     O    0.09340   0.09918   0.05589   1.000
    O91     O    0.09376   0.09174   0.86796   1.000
    Zr92    Zr   0.43578   0.92240   0.03208   1.000
    O93     O    0.40470   0.90842   0.13185   1.000
    O94     O    0.39987   0.98825   0.94196   1.000
    O95     O    0.48689   0.90598   0.94122   1.000
    O96     O    0.40490   0.90129   0.94394   1.000
    Zr97    Zr   0.93578   0.92240   0.03209   1.000
    O98     O    0.98689   0.90598   0.94122   1.000
    O99     O    0.90490   0.90129   0.94394   1.000
    O100    O    0.89986   0.98825   0.94196   1.000
    O101    O    0.90470   0.90842   0.13185   1.000
    Zr102   Zr   0.56398   0.07796   0.96770   1.000
    O103    O    0.51273   0.09454   0.05828   1.000
    O104    O    0.59973   0.01225   0.05756   1.000
    O105    O    0.59476   0.09918   0.05589   1.000
    O106    O    0.59513   0.09174   0.86796   1.000
    Zr107   Zr   0.56397   0.57797   0.96770   1.000
    O108    O    0.59512   0.59175   0.86796   1.000
    O109    O    0.51273   0.59455   0.05828   1.000
    O110    O    0.59476   0.59919   0.05589   1.000
    O111    O    0.59973   0.51225   0.05756   1.000
loop_
    _geom_bond_atom_site_label_1
    _geom_bond_atom_site_label_2
    _geom_bond_distance
    _geom_bond_site_symmetry_2
    _ccdc_geom_bond_type
    Zr32   O33       1.74837      .   S
    N4     O33       2.84901      .   S
    Zr32   O34       1.59679      .   S
    N10    O34       2.65374      .   S
    Zr32   O35       1.79328      .   S
    N20    O35       2.90026      .   S
    Zr32   O36       1.44991      .   S
    N29    O36       2.53226      .   S
    Zr37   O38       1.85685      .   S
    N27    O38       2.96906      .   S
    Zr37   O39       1.61790      .   S
    N13    O39       2.66023      .   S
    Zr37   O40       1.74740      .   S
    N19    O40       2.82614      .   S
    Zr37   O41       1.37564      .   S
    N18    O41       2.46130      .   S
    Zr42   O43       1.51847  1_554   S
    N21    O43       2.33081      .   S
    Zr42   O44       1.65600  1_554   S
    N28    O44       2.51749      .   S
    Zr42   O45       1.43936  1_554   S
    N14    O45       2.22596      .   S
    Zr42   O46       1.37825      .   S
    N5     O46       2.45541      .   S
    Zr47   O48       1.48725      .   S
    N25    O48       2.56214      .   S
    Zr47   O49       1.67199      .   S
    N15    O49       2.78704      .   S
    Zr47   O50       1.70143      .   S
    N6     O50       2.73484      .   S
    Zr47   O51       1.55423      .   S
    N31    O51       2.63480      .   S
    Zr52   O53       1.74740      .   S
    N28    O53       2.82614      .   S
    Zr52   O54       1.61790      .   S
    N7     O54       2.66023      .   S
    Zr52   O55       1.85684      .   S
    N17    O55       2.96903      .   S
    Zr52   O56       1.37598      .   S
    N5     O56       2.46235      .   S
    Zr57   O58       1.42626  1_556   S
    N23    O58       2.20470  1_655   S
    Zr57   O59       1.51972  1_556   S
    N3     O59       2.32855      .   S
    Zr57   O60       1.67386  1_556   S
    N20    O60       2.53844      .   S
    Zr57   O61       1.38844      .   S
    N29    O61       2.46626      .   S
    Zr62   O63       1.48725      .   S
    N22    O63       2.56214      .   S
    Zr62   O64       1.67202      .   S
    N8     O64       2.78712      .   S
    Zr62   O65       1.70143      .   S
    N3     O65       2.73484      .   S
    Zr62   O66       1.55423      .   S
    N30    O66       2.63480      .   S
    Zr67   O68       1.70143      .   S
    N24    O68       2.73484      .   S
    Zr67   O69       1.67202      .   S
    N12    O69       2.78712      .   S
    Zr67   O70       1.48723      .   S
    N23    O70       2.56208      .   S
    Zr67   O71       1.55423      .   S
    N2     O71       2.63480      .   S
    Zr72   O73       1.37598      .   S
    N1     O73       2.46235      .   S
    Zr72   O74       1.74741      .   S
    N11    O74       2.82619      .   S
    Zr72   O75       1.61790      .   S
    N14    O75       2.66023      .   S
    Zr72   O76       1.85686      .   S
    N9     O76       2.96907      .   S
    Zr77   O78       1.37826      .   S
    N1     O78       2.45542      .   S
    Zr77   O79       1.43938  1_554   S
    N7     O79       2.22602  1_455   S
    Zr77   O80       1.65601  1_554   S
    N11    O80       2.51746      .   S
    Zr77   O81       1.51846  1_554   S
    N27    O81       2.33079      .   S
    Zr82   O83       1.61790      .   S
    N16    O83       2.66023      .   S
    Zr82   O84       1.85684      .   S
    N21    O84       2.96903      .   S
    Zr82   O85       1.74740      .   S
    N26    O85       2.82614      .   S
    Zr82   O86       1.37564      .   S
    N0     O86       2.46130      .   S
    Zr87   O88       1.42623  1_556   S
    N25    O88       2.20464  1_655   S
    Zr87   O89       1.51965  1_556   S
    N4     O89       2.32837  1_565   S
    Zr87   O90       1.67386  1_556   S
    N8     O90       2.53845      .   S
    Zr87   O91       1.38844      .   S
    N30    O91       2.46627      .   S
    Zr92   O93       1.37850      .   S
    N0     O93       2.45635      .   S
    Zr92   O94       1.51839  1_554   S
    N17    O94       2.33063  1_545   S
    Zr92   O95       1.43936  1_554   S
    N13    O95       2.22596      .   S
    Zr92   O96       1.65601  1_554   S
    N26    O96       2.51749      .   S
    Zr97   O98       1.43938  1_554   S
    N16    O98       2.22602  1_455   S
    Zr97   O99       1.65602  1_554   S
    N19    O99       2.51750      .   S
    Zr97   O100      1.51838  1_554   S
    N9     O100      2.33061  1_545   S
    Zr97   O101      1.37851      .   S
    N18    O101      2.45636      .   S
    Zr102  O103      1.43800  1_556   S
    N22    O103      2.22248      .   S
    Zr102  O104      1.51427  1_556   S
    N24    O104      2.32422  1_565   S
    Zr102  O105      1.65688  1_556   S
    N15    O105      2.51851      .   S
    Zr102  O106      1.37815      .   S
    N31    O106      2.45403      .   S
    Zr107  O108      1.37815      .   S
    N2     O108      2.45402      .   S
    Zr107  O109      1.43803  1_556   S
    N10    O109      2.22252      .   S
    Zr107  O110      1.65686  1_556   S
    N12    O110      2.51845      .   S
    Zr107  O111      1.51435  1_556   S
    N6     O111      2.32440      .   S
