# CIF file generated by openbabel 2.4.90, see http://openbabel.sf.net
data_I
_chemical_name_common ''
_cell_length_a 16.334
_cell_length_b 16.343
_cell_length_c 16.344
_cell_angle_alpha 92.276
_cell_angle_beta 92.425
_cell_angle_gamma 92.394
_space_group_name_H-M_alt 'P 1'
_space_group_name_Hall 'P 1'
loop_
    _symmetry_equiv_pos_as_xyz
    x,y,z
loop_
    _atom_site_label
    _atom_site_type_symbol
    _atom_site_fract_x
    _atom_site_fract_y
    _atom_site_fract_z
    _atom_site_occupancy
    C0      C    0.54999   0.18521   0.43219   1.000
    C1      C    0.93535   0.18502   0.43440   1.000
    C2      C    0.67387   0.31949   0.31436   1.000
    C3      C    0.68619   0.67763   0.32624   1.000
    C4      C    0.43209   0.54960   0.18810   1.000
    C5      C    0.43190   0.93407   0.18522   1.000
    C6      C    0.31383   0.67345   0.32200   1.000
    C7      C    0.18567   0.43105   0.55175   1.000
    C8      C    0.18520   0.43159   0.93610   1.000
    C9      C    0.32095   0.31304   0.67396   1.000
    C10     C    0.81433   0.44773   0.56890   1.000
    C11     C    0.81487   0.06358   0.56838   1.000
    C12     C    0.67817   0.32604   0.68660   1.000
    C13     C    0.44981   0.56754   0.81457   1.000
    C14     C    0.06446   0.56556   0.81497   1.000
    C15     C    0.32612   0.68564   0.68050   1.000
    C16     C    0.56921   0.81212   0.45058   1.000
    C17     C    0.56761   0.81392   0.06587   1.000
