# CIF file generated by openbabel 2.4.90, see http://openbabel.sf.net
data_I
_chemical_name_common ''
_cell_length_a 16.334
_cell_length_b 16.343
_cell_length_c 16.344
_cell_angle_alpha 92.276
_cell_angle_beta 92.425
_cell_angle_gamma 92.394
_space_group_name_H-M_alt 'P 1'
_space_group_name_Hall 'P 1'
loop_
    _symmetry_equiv_pos_as_xyz
    x,y,z
loop_
    _atom_site_label
    _atom_site_type_symbol
    _atom_site_fract_x
    _atom_site_fract_y
    _atom_site_fract_z
    _atom_site_occupancy
    Zr0     Zr   0.74213   0.15601   0.41064   1.000
    Zr1     Zr   0.40931   0.74157   0.15805   1.000
    Zr2     Zr   0.15671   0.40826   0.74336   1.000
    Zr3     Zr   0.84296   0.25627   0.59174   1.000
    Zr4     Zr   0.25769   0.58938   0.84382   1.000
    Zr5     Zr   0.59061   0.84222   0.25823   1.000
    Zr6     Zr   0.66585   0.33225   0.50084   1.000
    Zr7     Zr   0.50007   0.66555   0.33478   1.000
    Zr8     Zr   0.33374   0.49909   0.66758   1.000
    Zr9     Zr   0.54999   0.18521   0.43219   1.000
    Zr10    Zr   0.93535   0.18502   0.43440   1.000
    Zr11    Zr   0.67387   0.31949   0.31436   1.000
    Zr12    Zr   0.43209   0.54960   0.18810   1.000
    Zr13    Zr   0.43190   0.93407   0.18522   1.000
    Zr14    Zr   0.31383   0.67345   0.32200   1.000
    Zr15    Zr   0.18567   0.43105   0.55175   1.000
    Zr16    Zr   0.18520   0.43159   0.93610   1.000
    Zr17    Zr   0.32095   0.31304   0.67396   1.000
    Zr18    Zr   0.81433   0.44773   0.56890   1.000
    Zr19    Zr   0.81487   0.06358   0.56838   1.000
    Zr20    Zr   0.67817   0.32604   0.68660   1.000
    Zr21    Zr   0.44981   0.56754   0.81457   1.000
    Zr22    Zr   0.06446   0.56556   0.81497   1.000
    Zr23    Zr   0.32612   0.68564   0.68050   1.000
    Zr24    Zr   0.56921   0.81212   0.45058   1.000
    Zr25    Zr   0.56761   0.81392   0.06587   1.000
    Zr26    Zr   0.68619   0.67763   0.32624   1.000
    Zr27    Zr   0.55586   0.26074   0.45875   1.000
    Zr28    Zr   0.60812   0.13543   0.43032   1.000
    Zr29    Zr   0.93720   0.21869   0.50669   1.000
    Zr30    Zr   0.87267   0.17399   0.38482   1.000
    Zr31    Zr   0.66669   0.37167   0.37500   1.000
    Zr32    Zr   0.69772   0.24665   0.31940   1.000
    Zr33    Zr   0.45824   0.55535   0.26391   1.000
    Zr34    Zr   0.43029   0.60794   0.13858   1.000
    Zr35    Zr   0.50399   0.93515   0.21932   1.000
    Zr36    Zr   0.38187   0.87175   0.17350   1.000
    Zr37    Zr   0.37457   0.66648   0.37487   1.000
    Zr38    Zr   0.31897   0.69724   0.24954   1.000
    Zr39    Zr   0.26103   0.45833   0.55799   1.000
    Zr40    Zr   0.13580   0.42770   0.60973   1.000
    Zr41    Zr   0.21920   0.50371   0.93742   1.000
    Zr42    Zr   0.17394   0.38164   0.87383   1.000
    Zr43    Zr   0.37365   0.37357   0.66687   1.000
    Zr44    Zr   0.24831   0.31844   0.69811   1.000
    Zr45    Zr   0.73897   0.44153   0.54166   1.000
    Zr46    Zr   0.86418   0.38970   0.57238   1.000
    Zr47    Zr   0.78087   0.06242   0.49626   1.000
    Zr48    Zr   0.82617   0.12580   0.61841   1.000
    Zr49    Zr   0.62539   0.33331   0.62609   1.000
    Zr50    Zr   0.75075   0.30182   0.68106   1.000
    Zr51    Zr   0.44391   0.54084   0.73908   1.000
    Zr52    Zr   0.39171   0.56952   0.86435   1.000
    Zr53    Zr   0.06264   0.49332   0.78128   1.000
    Zr54    Zr   0.12708   0.61522   0.82600   1.000
    Zr55    Zr   0.33326   0.62490   0.62831   1.000
    Zr56    Zr   0.30226   0.68063   0.75333   1.000
    Zr57    Zr   0.54208   0.73671   0.44476   1.000
    Zr58    Zr   0.57259   0.86167   0.39228   1.000
    Zr59    Zr   0.49573   0.77932   0.06472   1.000
    Zr60    Zr   0.61767   0.82563   0.12810   1.000
    Zr61    Zr   0.62543   0.62524   0.33343   1.000
    Zr62    Zr   0.68098   0.75034   0.30209   1.000
    Zr63    Zr   0.75149   0.24651   0.50145   1.000
    Zr64    Zr   0.49911   0.75224   0.24990   1.000
    Zr65    Zr   0.24772   0.49898   0.75293   1.000
    O66     O    0.53167   0.79662   0.06529   1.000
    O67     O    0.59264   0.81978   0.09699   1.000
    O68     O    0.60414   0.83393   0.19317   1.000
    O69     O    0.43119   0.57877   0.16334   1.000
    O70     O    0.39559   0.80666   0.16578   1.000
    O71     O    0.40688   0.90291   0.17936   1.000
    O72     O    0.46794   0.93461   0.20227   1.000
    O73     O    0.44516   0.55247   0.22600   1.000
    O74     O    0.31640   0.68535   0.28577   1.000
    O75     O    0.54486   0.79723   0.25407   1.000
    O76     O    0.49959   0.70889   0.29234   1.000
    O77     O    0.47915   0.61045   0.29935   1.000
    O78     O    0.68358   0.71399   0.31417   1.000
    O79     O    0.68580   0.28307   0.31688   1.000
    O80     O    0.67028   0.34558   0.34468   1.000
    O81     O    0.34420   0.66997   0.34843   1.000
    O82     O    0.65581   0.65143   0.32984   1.000
    O83     O    0.52108   0.70113   0.38977   1.000
    O84     O    0.80740   0.16500   0.39773   1.000
    O85     O    0.90401   0.17950   0.40961   1.000
    O86     O    0.57090   0.83690   0.42143   1.000
    O87     O    0.74681   0.20126   0.45604   1.000
    O88     O    0.57906   0.16032   0.43126   1.000
    O89     O    0.55292   0.22297   0.44547   1.000
    O90     O    0.93628   0.20186   0.47054   1.000
    O91     O    0.55565   0.77442   0.44767   1.000
    O92     O    0.61085   0.29649   0.47980   1.000
    O93     O    0.79787   0.06300   0.53232   1.000
    O94     O    0.70867   0.28938   0.50115   1.000
    O95     O    0.70241   0.38689   0.52125   1.000
    O96     O    0.77665   0.44463   0.55528   1.000
    O97     O    0.22335   0.44469   0.55487   1.000
    O98     O    0.16073   0.42938   0.58074   1.000
    O99     O    0.29739   0.47871   0.61278   1.000
    O100    O    0.82052   0.09469   0.59340   1.000
    O101    O    0.83926   0.41871   0.57064   1.000
    O102    O    0.83457   0.19103   0.60508   1.000
    O103    O    0.65178   0.32967   0.65635   1.000
    O104    O    0.32969   0.65527   0.65441   1.000
    O105    O    0.34730   0.34331   0.67041   1.000
    O106    O    0.38882   0.51997   0.70333   1.000
    O107    O    0.29073   0.49903   0.71026   1.000
    O108    O    0.28463   0.31574   0.68603   1.000
    O109    O    0.31419   0.68313   0.71692   1.000
    O110    O    0.71446   0.31393   0.68383   1.000
    O111    O    0.44686   0.55419   0.77682   1.000
    O112    O    0.16532   0.39495   0.80860   1.000
    O113    O    0.25271   0.54418   0.79837   1.000
    O114    O    0.06355   0.52944   0.79813   1.000
    O115    O    0.42076   0.56853   0.83946   1.000
    O116    O    0.09577   0.59039   0.82049   1.000
    O117    O    0.19238   0.60230   0.83491   1.000
    O118    O    0.17957   0.40662   0.90497   1.000
    O119    O    0.20220   0.46765   0.93676   1.000
    O120    O    0.67513   0.14572   0.42048   1.000
    O121    O    0.89008   0.23748   0.54922   1.000
    O122    O    0.66627   0.35196   0.43792   1.000
    O123    O    0.71993   0.20133   0.36502   1.000
    O124    O    0.41980   0.67475   0.14832   1.000
    O125    O    0.54730   0.88869   0.23878   1.000
    O126    O    0.43732   0.66601   0.35483   1.000
    O127    O    0.36414   0.71941   0.20380   1.000
    O128    O    0.14625   0.41798   0.67654   1.000
    O129    O    0.23845   0.54655   0.89062   1.000
    O130    O    0.35370   0.43633   0.66722   1.000
    O131    O    0.20251   0.36335   0.72074   1.000
    O132    O    0.85357   0.32298   0.58206   1.000
    O133    O    0.76150   0.10922   0.45345   1.000
    O134    O    0.64562   0.33278   0.56347   1.000
    O135    O    0.79686   0.27904   0.63640   1.000
    O136    O    0.32470   0.57945   0.85409   1.000
    O137    O    0.10967   0.45079   0.76232   1.000
    O138    O    0.33350   0.56200   0.64795   1.000
    O139    O    0.27998   0.63500   0.79858   1.000
    O140    O    0.58160   0.85195   0.32525   1.000
    O141    O    0.45252   0.76044   0.11139   1.000
    O142    O    0.56275   0.64539   0.33411   1.000
    O143    O    0.63579   0.79628   0.28016   1.000
    O144    O    0.79723   0.25139   0.54660   1.000
    O145    O    0.45421   0.74690   0.20398   1.000
    O146    O    0.20221   0.45362   0.74815   1.000
    N147    N    0.00000   0.62352   0.37643   1.000
    O148    O    0.13610   0.64275   0.35629   1.000
    O149    O    0.86391   0.64361   0.35710   1.000
    N150    N    0.76172   0.62487   0.87616   1.000
    O151    O    0.62658   0.60356   0.85306   1.000
    O152    O    0.89326   0.60249   0.85281   1.000
    N153    N    0.23806   0.12368   0.37500   1.000
    O154    O    0.37322   0.14675   0.39625   1.000
    O155    O    0.10654   0.14711   0.39743   1.000
    N156    N    0.37466   0.99922   0.62452   1.000
    O157    O    0.35605   0.86322   0.64542   1.000
    O158    O    0.35467   0.13531   0.64345   1.000
    N159    N    0.87609   0.76004   0.62563   1.000
    O160    O    0.85291   0.62475   0.60440   1.000
    O161    O    0.85274   0.89191   0.60413   1.000
    N162    N    0.37472   0.23783   0.12473   1.000
    O163    O    0.39619   0.10588   0.14774   1.000
    O164    O    0.39617   0.37293   0.14860   1.000
    N165    N    0.62527   0.87525   0.76259   1.000
    O166    O    0.60353   0.85191   0.89434   1.000
    O167    O    0.60436   0.85150   0.62742   1.000
    N168    N    0.62519   0.37544   0.00065   1.000
    O169    O    0.64486   0.35651   0.86446   1.000
    O170    O    0.64390   0.35456   0.13671   1.000
    N171    N    0.12388   0.37427   0.23943   1.000
    O172    O    0.14708   0.39552   0.37472   1.000
    O173    O    0.14727   0.39580   0.10764   1.000
    N174    N    0.70415   0.99970   0.29618   1.000
    O175    O    0.72157   0.05437   0.32879   1.000
    O176    O    0.67175   0.94478   0.27871   1.000
    N177    N    0.29532   0.70264   0.00081   1.000
    O178    O    0.27810   0.67056   0.94588   1.000
    O179    O    0.32764   0.72004   0.05585   1.000
    N180    N    0.99984   0.29412   0.70581   1.000
    O181    O    0.05483   0.32641   0.72287   1.000
    O182    O    0.94487   0.27696   0.67357   1.000
loop_
    _geom_bond_atom_site_label_1
    _geom_bond_atom_site_label_2
    _geom_bond_distance
    _geom_bond_site_symmetry_2
    _ccdc_geom_bond_type
    Zr59   O66       0.64040      .   S
    Zr25   O66       0.64040      .   S
    Zr25   O67       0.64048      .   S
    Zr60   O67       0.64048      .   S
    Zr60   O68       1.09956      .   S
    Zr5    O68       1.09956      .   S
    Zr34   O69       0.63770      .   S
    Zr12   O69       0.63770      .   S
    Zr1    O70       1.09972      .   S
    Zr36   O70       1.09972      .   S
    Zr36   O71       0.64103      .   S
    Zr13   O71       0.64103      .   S
    Zr13   O72       0.64018      .   S
    Zr35   O72       0.64018      .   S
    Zr12   O73       0.64596      .   S
    Zr33   O73       0.64596      .   S
    Zr38   O74       0.63306      .   S
    Zr14   O74       0.63306      .   S
    Zr64   O75       1.02449      .   S
    Zr5    O75       1.02449      .   S
    Zr64   O76       1.01098      .   S
    Zr7    O76       1.01098      .   S
    Zr33   O77       1.08586      .   S
    Zr7    O77       1.08586      .   S
    Zr62   O78       0.63599      .   S
    Zr26   O78       0.63599      .   S
    Zr11   O79       0.63630      .   S
    Zr32   O79       0.63630      .   S
    Zr11   O80       0.64699      .   S
    Zr31   O80       0.64699      .   S
    Zr14   O81       0.64973      .   S
    Zr37   O81       0.64973      .   S
    Zr26   O82       0.64784      .   S
    Zr61   O82       0.64784      .   S
    Zr7    O83       1.08600      .   S
    Zr57   O83       1.08600      .   S
    Zr30   O84       1.10051      .   S
    Zr0    O84       1.10051      .   S
    Zr30   O85       0.64032      .   S
    Zr10   O85       0.64032      .   S
    Zr58   O86       0.63810      .   S
    Zr24   O86       0.63810      .   S
    Zr0    O87       1.02481      .   S
    Zr63   O87       1.02481      .   S
    Zr28   O88       0.63826      .   S
    Zr9    O88       0.63826      .   S
    Zr9    O89       0.64522      .   S
    Zr27   O89       0.64522      .   S
    Zr10   O90       0.64104      .   S
    Zr29   O90       0.64104      .   S
    Zr57   O91       0.64536      .   S
    Zr24   O91       0.64536      .   S
    Zr27   O92       1.08665      .   S
    Zr6    O92       1.08665      .   S
    Zr47   O93       0.64033      .   S
    Zr19   O93       0.64033      .   S
    Zr6    O94       1.01053      .   S
    Zr63   O94       1.01053      .   S
    Zr6    O95       1.08639      .   S
    Zr45   O95       1.08639      .   S
    Zr45   O96       0.64484      .   S
    Zr18   O96       0.64484      .   S
    Zr15   O97       0.64505      .   S
    Zr39   O97       0.64505      .   S
    Zr15   O98       0.63839      .   S
    Zr40   O98       0.63839      .   S
    Zr39   O99       1.08646      .   S
    Zr8    O99       1.08646      .   S
    Zr19   O100      0.64073      .   S
    Zr48   O100      0.64073      .   S
    Zr18   O101      0.63845      .   S
    Zr46   O101      0.63845      .   S
    Zr3    O102      1.10076      .   S
    Zr48   O102      1.10076      .   S
    Zr49   O103      0.64826      .   S
    Zr20   O103      0.64826      .   S
    Zr55   O104      0.64754      .   S
    Zr23   O104      0.64754      .   S
    Zr43   O105      0.64803      .   S
    Zr17   O105      0.64803      .   S
    Zr8    O106      1.08690      .   S
    Zr51   O106      1.08690      .   S
    Zr8    O107      1.01068      .   S
    Zr65   O107      1.01068      .   S
    Zr17   O108      0.63581      .   S
    Zr44   O108      0.63581      .   S
    Zr23   O109      0.63635      .   S
    Zr56   O109      0.63635      .   S
    Zr50   O110      0.63562      .   S
    Zr20   O110      0.63562      .   S
    Zr51   O111      0.64529      .   S
    Zr21   O111      0.64529      .   S
    Zr2    O112      1.10100      .   S
    Zr42   O112      1.10100      .   S
    Zr65   O113      1.02483      .   S
    Zr4    O113      1.02483      .   S
    Zr53   O114      0.64071      .   S
    Zr22   O114      0.64071      .   S
    Zr21   O115      0.63827      .   S
    Zr52   O115      0.63827      .   S
    Zr22   O116      0.64048      .   S
    Zr54   O116      0.64048      .   S
    Zr54   O117      1.10082      .   S
    Zr4    O117      1.10082      .   S
    Zr42   O118      0.64063      .   S
    Zr16   O118      0.64063      .   S
    Zr16   O119      0.64042      .   S
    Zr41   O119      0.64042      .   S
    Zr28   O120      1.11966      .   S
    Zr0    O120      1.11966      .   S
    Zr29   O121      1.10349      .   S
    Zr3    O121      1.10349      .   S
    Zr31   O122      1.08999      .   S
    Zr6    O122      1.08999      .   S
    Zr32   O123      1.13112      .   S
    Zr0    O123      1.13112      .   S
    Zr34   O124      1.11857      .   S
    Zr1    O124      1.11857      .   S
    Zr35   O125      1.10599      .   S
    Zr5    O125      1.10599      .   S
    Zr37   O126      1.08942      .   S
    Zr7    O126      1.08942      .   S
    Zr38   O127      1.13154      .   S
    Zr1    O127      1.13154      .   S
    Zr40   O128      1.11676      .   S
    Zr2    O128      1.11676      .   S
    Zr41   O129      1.10381      .   S
    Zr4    O129      1.10381      .   S
    Zr43   O130      1.08897      .   S
    Zr8    O130      1.08897      .   S
    Zr44   O131      1.13262      .   S
    Zr2    O131      1.13262      .   S
    Zr46   O132      1.11542      .   S
    Zr3    O132      1.11542      .   S
    Zr47   O133      1.10391      .   S
    Zr0    O133      1.10391      .   S
    Zr49   O134      1.08859      .   S
    Zr6    O134      1.08859      .   S
    Zr50   O135      1.13439      .   S
    Zr3    O135      1.13439      .   S
    Zr52   O136      1.11981      .   S
    Zr4    O136      1.11981      .   S
    Zr53   O137      1.10315      .   S
    Zr2    O137      1.10315      .   S
    Zr55   O138      1.08923      .   S
    Zr8    O138      1.08923      .   S
    Zr56   O139      1.13102      .   S
    Zr4    O139      1.13102      .   S
    Zr58   O140      1.11745      .   S
    Zr5    O140      1.11745      .   S
    Zr59   O141      1.10501      .   S
    Zr1    O141      1.10501      .   S
    Zr61   O142      1.08889      .   S
    Zr7    O142      1.08889      .   S
    Zr62   O143      1.13235      .   S
    Zr5    O143      1.13235      .   S
    Zr63   O144      1.02594      .   S
    Zr3    O144      1.02594      .   S
    Zr64   O145      1.02554      .   S
    Zr1    O145      1.02554      .   S
    Zr65   O146      1.02595      .   S
    Zr2    O146      1.02595      .   S
    N147   O148      2.27171      .   S
    Zr14   O148      3.00531      .   S
    N147   O149      2.27128  1_455   S
    Zr26   O149      3.00393      .   S
    N150   O151      2.23415      .   S
    Zr21   O151      2.95863      .   S
    N150   O152      2.24036      .   S
    Zr22   O152      2.97057  1_455   S
    N153   O154      2.23412      .   S
    Zr9    O154      2.95852      .   S
    N153   O155      2.24063      .   S
    Zr10   O155      2.97077  1_655   S
    N156   O157      2.27204      .   S
    Zr23   O157      3.00461      .   S
    N156   O158      2.27234  1_565   S
    Zr17   O158      3.00514      .   S
    N159   O160      2.23853      .   S
    Zr18   O160      2.96419      .   S
    N159   O161      2.24303      .   S
    Zr19   O161      2.97315  1_545   S
    N162   O163      2.24307      .   S
    Zr13   O163      2.97370  1_565   S
    N162   O164      2.23727      .   S
    Zr12   O164      2.96239      .   S
    N165   O166      2.24209      .   S
    Zr25   O166      2.97266  1_554   S
    N165   O167      2.23716      .   S
    Zr24   O167      2.96278      .   S
    N168   O169      2.27320  1_554   S
    Zr20   O169      3.00604      .   S
    N168   O170      2.27293      .   S
    Zr11   O170      3.00562      .   S
    N171   O172      2.23854      .   S
    Zr15   O172      2.96434      .   S
    N171   O173      2.24232      .   S
    Zr16   O173      2.97208  1_556   S
    N174   O175      1.04469  1_565   S
    Zr0    O175      2.09785      .   S
    N174   O176      1.04608      .   S
    Zr5    O176      2.10010      .   S
    N177   O178      1.04353  1_554   S
    Zr4    O178      2.09617      .   S
    N177   O179      1.04671      .   S
    Zr1    O179      2.10216      .   S
    N180   O181      1.04412  1_655   S
    Zr2    O181      2.09818      .   S
    N180   O182      1.04404      .   S
    Zr3    O182      2.09812      .   S
