# CIF file generated by openbabel 2.4.90, see http://openbabel.sf.net
data_I
_chemical_name_common ''
_cell_length_a 10.563
_cell_length_b 11.365
_cell_length_c 16.816
_cell_angle_alpha 98.438
_cell_angle_beta 95.506
_cell_angle_gamma 101.269
_space_group_name_H-M_alt 'P 1'
_space_group_name_Hall 'P 1'
loop_
    _symmetry_equiv_pos_as_xyz
    x,y,z
loop_
    _atom_site_label
    _atom_site_type_symbol
    _atom_site_fract_x
    _atom_site_fract_y
    _atom_site_fract_z
    _atom_site_occupancy
    P0      P    0.75051   0.73685   0.61544   1.000
    P1      P    0.73175   0.70972   0.11772   1.000
    P2      P    0.75661   0.21085   0.61328   1.000
    P3      P    0.73553   0.23360   0.11424   1.000
    P4      P    0.22797   0.74550   0.61708   1.000
    P5      P    0.23611   0.72811   0.11339   1.000
    P6      P    0.25995   0.20843   0.60996   1.000
    P7      P    0.23766   0.21804   0.11927   1.000
    P8      P    0.76516   0.76613   0.88011   1.000
    P9      P    0.74445   0.74051   0.38267   1.000
    P10     P    0.76283   0.24183   0.88283   1.000
    P11     P    0.73985   0.26515   0.38393   1.000
    P12     P    0.26105   0.74673   0.88496   1.000
    P13     P    0.26811   0.72817   0.38075   1.000
    P14     P    0.26127   0.25820   0.87796   1.000
    P15     P    0.23750   0.26676   0.38710   1.000
    H16     H    0.91285   0.79081   0.72948   1.000
    H17     H    0.87183   0.77206   0.24063   1.000
    H18     H    0.90407   0.26068   0.73541   1.000
    H19     H    0.88372   0.27174   0.23496   1.000
    H20     H    0.38755   0.79500   0.73266   1.000
    H21     H    0.39062   0.77412   0.23062   1.000
    H22     H    0.41036   0.25404   0.73033   1.000
    H23     H    0.37863   0.27270   0.24216   1.000
    H24     H    0.79681   0.88469   0.73464   1.000
    H25     H    0.75044   0.85913   0.23558   1.000
    H26     H    0.79810   0.36297   0.73115   1.000
    H27     H    0.78112   0.37711   0.23480   1.000
    H28     H    0.26923   0.88543   0.74088   1.000
    H29     H    0.26997   0.86129   0.23917   1.000
    H30     H    0.31043   0.36175   0.72694   1.000
    H31     H    0.27463   0.37590   0.23284   1.000
    H32     H    0.62578   0.70129   0.75722   1.000
    H33     H    0.58402   0.68443   0.26768   1.000
    H34     H    0.61366   0.20319   0.76262   1.000
    H35     H    0.59289   0.21534   0.26140   1.000
    H36     H    0.10560   0.70132   0.76809   1.000
    H37     H    0.10858   0.67862   0.26515   1.000
    H38     H    0.11935   0.20479   0.75549   1.000
    H39     H    0.08734   0.22374   0.26661   1.000
    H40     H    0.74897   0.61624   0.76268   1.000
    H41     H    0.70044   0.59089   0.26427   1.000
    H42     H    0.71685   0.09830   0.76224   1.000
    H43     H    0.69843   0.11276   0.26624   1.000
    H44     H    0.22535   0.61313   0.75926   1.000
    H45     H    0.22746   0.58880   0.25682   1.000
    H46     H    0.22300   0.10114   0.76399   1.000
    H47     H    0.18624   0.11514   0.26940   1.000
    C48     C    0.80821   0.79001   0.72067   1.000
    C49     C    0.76689   0.76589   0.22532   1.000
    C50     C    0.80180   0.26596   0.72136   1.000
    C51     C    0.78191   0.27951   0.22245   1.000
    C52     C    0.28226   0.79163   0.72456   1.000
    C53     C    0.28493   0.76836   0.22175   1.000
    C54     C    0.30936   0.26375   0.71728   1.000
    C55     C    0.27703   0.27869   0.22579   1.000
    C56     C    0.73096   0.70895   0.77265   1.000
    C57     C    0.68868   0.68557   0.27734   1.000
    C58     C    0.71567   0.19581   0.77476   1.000
    C59     C    0.69503   0.20986   0.27577   1.000
    C60     C    0.21118   0.70636   0.77660   1.000
    C61     C    0.21394   0.68240   0.27333   1.000
    C62     C    0.22097   0.19845   0.77137   1.000
    C63     C    0.18808   0.21330   0.27959   1.000
    O64     O    0.83378   0.82509   0.56218   1.000
    O65     O    0.83434   0.78974   0.07684   1.000
    O66     O    0.86202   0.27592   0.56823   1.000
    O67     O    0.81494   0.33417   0.07294   1.000
    O68     O    0.31848   0.82826   0.56940   1.000
    O69     O    0.31215   0.83438   0.07583   1.000
    O70     O    0.36222   0.27930   0.56517   1.000
    O71     O    0.33740   0.29423   0.07407   1.000
    O72     O    0.77340   0.60745   0.59291   1.000
    O73     O    0.74493   0.57562   0.10756   1.000
    O74     O    0.75542   0.06986   0.60490   1.000
    O75     O    0.77286   0.11010   0.08845   1.000
    O76     O    0.23766   0.61173   0.59448   1.000
    O77     O    0.27798   0.60775   0.08482   1.000
    O78     O    0.26109   0.06922   0.59949   1.000
    O79     O    0.24964   0.08319   0.11015   1.000
    O80     O    0.60670   0.74325   0.60056   1.000
    O81     O    0.59408   0.72823   0.09021   1.000
    O82     O    0.61882   0.23265   0.59313   1.000
    O83     O    0.58704   0.22420   0.09814   1.000
    O84     O    0.08446   0.76161   0.60459   1.000
    O85     O    0.08662   0.71413   0.09853   1.000
    O86     O    0.12022   0.22924   0.59353   1.000
    O87     O    0.09877   0.23514   0.09253   1.000
    O88     O    0.66239   0.68592   0.92075   1.000
    O89     O    0.66195   0.65239   0.43626   1.000
    O90     O    0.68347   0.14155   0.92426   1.000
    O91     O    0.63493   0.19931   0.42907   1.000
    O92     O    0.18557   0.64096   0.92321   1.000
    O93     O    0.17766   0.64527   0.42818   1.000
    O94     O    0.16150   0.18172   0.92296   1.000
    O95     O    0.13393   0.19585   0.43111   1.000
    O96     O    0.75028   0.89978   0.88936   1.000
    O97     O    0.71829   0.86895   0.40422   1.000
    O98     O    0.72628   0.36558   0.90864   1.000
    O99     O    0.73977   0.40595   0.39231   1.000
    O100    O    0.22022   0.86750   0.91378   1.000
    O101    O    0.25970   0.86221   0.40351   1.000
    O102    O    0.25065   0.39339   0.88800   1.000
    O103    O    0.23842   0.40640   0.39894   1.000
    O104    O    0.90357   0.75017   0.90832   1.000
    O105    O    0.88923   0.73823   0.39849   1.000
    O106    O    0.91133   0.25081   0.89862   1.000
    O107    O    0.87787   0.24403   0.40409   1.000
    O108    O    0.41049   0.75977   0.89905   1.000
    O109    O    0.41137   0.71122   0.39317   1.000
    O110    O    0.39991   0.23986   0.90421   1.000
    O111    O    0.37681   0.24479   0.40300   1.000
loop_
    _geom_bond_atom_site_label_1
    _geom_bond_atom_site_label_2
    _geom_bond_distance
    _geom_bond_site_symmetry_2
    _ccdc_geom_bond_type
    O67    P3        1.56918      .   S
    O71    P7        1.55809      .   S
    O69    P5        1.56358      .   S
    O65    P1        1.55416      .   S
    O77    P5        1.54330      .   S
    O75    P3        1.54405      .   S
    O81    P1        1.54665      .   S
    O87    P7        1.55007      .   S
    O83    P3        1.54580      .   S
    O85    P5        1.54782      .   S
    O73    P1        1.54347      .   S
    O79    P7        1.54883      .   S
    P5     C53       1.81069      .   S
    P3     C51       1.80935      .   S
    P1     C49       1.80515      .   S
    P7     C55       1.79987      .   S
    C53    H21       1.09975      .   S
    C53    H29       1.09985      .   S
    C53    C61       1.53501      .   S
    C51    H27       1.10000      .   S
    C51    H19       1.09898      .   S
    C51    C59       1.53474      .   S
    C49    H25       1.09873      .   S
    C49    H17       1.09974      .   S
    C49    C57       1.53593      .   S
    C55    H31       1.09924      .   S
    C55    H23       1.09975      .   S
    C55    C63       1.53007      .   S
    H45    C61       1.09967      .   S
    H35    C59       1.09862      .   S
    H41    C57       1.09977      .   S
    H37    C61       1.09981      .   S
    H43    C59       1.09966      .   S
    H39    C63       1.09837      .   S
    H33    C57       1.09910      .   S
    H47    C63       1.09952      .   S
    C61    P13       1.80831      .   S
    C59    P11       1.81937      .   S
    C57    P9        1.79042      .   S
    C63    P15       1.81189      .   S
    P13    O109      1.56071      .   S
    P13    O101      1.53737      .   S
    P13    O93       1.56581      .   S
    P9     O105      1.53293      .   S
    P9     O97       1.53625      .   S
    P9     O89       1.62750      .   S
    P11    O99       1.58583      .   S
    P11    O107      1.53746      .   S
    P11    O91       1.53891      .   S
    P15    O103      1.56809      .   S
    P15    O111      1.54500      .   S
    P15    O95       1.54260      .   S
    O64    P0        1.62836      .   S
    O70    P6        1.54189      .   S
    O66    P2        1.53788      .   S
    O68    P4        1.56794      .   S
    O72    P0        1.53558      .   S
    O82    P2        1.53804      .   S
    O86    P6        1.54545      .   S
    O76    P4        1.53780      .   S
    O78    P6        1.56855      .   S
    O80    P0        1.53327      .   S
    O84    P4        1.56012      .   S
    O74    P2        1.58526      .   S
    P6     C54       1.81178      .   S
    P2     C50       1.81823      .   S
    P0     C48       1.78976      .   S
    P4     C52       1.81001      .   S
    C54    H30       1.09942      .   S
    C54    H22       1.09848      .   S
    C54    C62       1.52974      .   S
    C48    H16       1.09905      .   S
    C48    H24       1.09974      .   S
    C48    C56       1.53561      .   S
    C50    H26       1.09959      .   S
    C50    H18       1.09865      .   S
    C50    C58       1.53400      .   S
    C52    H20       1.09987      .   S
    C52    H28       1.09972      .   S
    C52    C60       1.53597      .   S
    H38    C62       1.09982      .   S
    H32    C56       1.09979      .   S
    H44    C60       1.09991      .   S
    H42    C58       1.09995      .   S
    H34    C58       1.09906      .   S
    H40    C56       1.09861      .   S
    H46    C62       1.09931      .   S
    H36    C60       1.09974      .   S
    C62    P14       1.79958      .   S
    C56    P8        1.80456      .   S
    C58    P10       1.80815      .   S
    C60    P12       1.81225      .   S
    P14    O102      1.54813      .   S
    P14    O110      1.55077      .   S
    P14    O94       1.55779      .   S
    P8     O96       1.54422      .   S
    P8     O104      1.54642      .   S
    P8     O88       1.55393      .   S
    P10    O106      1.54629      .   S
    P10    O98       1.54295      .   S
    P10    O90       1.56809      .   S
    P12    O108      1.54802      .   S
    P12    O100      1.54308      .   S
    P12    O92       1.56373      .   S
