# CIF file generated by openbabel 2.4.90, see http://openbabel.sf.net
data_I
_chemical_name_common ''
_cell_length_a 10.563
_cell_length_b 11.365
_cell_length_c 16.816
_cell_angle_alpha 98.438
_cell_angle_beta 95.506
_cell_angle_gamma 101.269
_space_group_name_H-M_alt 'P 1'
_space_group_name_Hall 'P 1'
loop_
    _symmetry_equiv_pos_as_xyz
    x,y,z
loop_
    _atom_site_label
    _atom_site_type_symbol
    _atom_site_fract_x
    _atom_site_fract_y
    _atom_site_fract_z
    _atom_site_occupancy
    Zr0     Zr   0.96304   0.74046   0.01736   1.000
    Zr1     Zr   0.97842   0.75879   0.50725   1.000
    Zr2     Zr   0.03536   0.23482   0.00000   1.000
    Zr3     Zr   0.99921   0.23615   0.49939   1.000
    Zr4     Zr   0.53413   0.73537   0.98075   1.000
    Zr5     Zr   0.51635   0.71959   0.49185   1.000
    Zr6     Zr   0.46258   0.23978   0.01387   1.000
    Zr7     Zr   0.49779   0.23923   0.49747   1.000
    Zr8     Zr   0.74622   0.02481   0.97872   1.000
    Zr9     Zr   0.76067   0.96167   0.51279   1.000
    Zr10    Zr   0.75109   0.45047   0.01840   1.000
    Zr11    Zr   0.73357   0.51483   0.48410   1.000
    Zr12    Zr   0.25146   0.95484   0.02366   1.000
    Zr13    Zr   0.27806   0.95462   0.51149   1.000
    Zr14    Zr   0.24779   0.52059   0.97503   1.000
    Zr15    Zr   0.21977   0.52016   0.48648   1.000
    Zr16    Zr   0.89494   0.56308   0.98967   1.000
    Zr17    Zr   0.92228   0.58427   0.48650   1.000
    Zr18    Zr   0.93275   0.07046   0.97929   1.000
    Zr19    Zr   0.91116   0.05473   0.48284   1.000
    Zr20    Zr   0.43304   0.57042   0.97216   1.000
    Zr21    Zr   0.41622   0.57038   0.50696   1.000
    Zr22    Zr   0.40000   0.06021   0.99315   1.000
    Zr23    Zr   0.42270   0.05990   0.48279   1.000
    Zr24    Zr   0.57168   0.89458   0.51030   1.000
    Zr25    Zr   0.59993   0.91432   0.00695   1.000
    Zr26    Zr   0.58356   0.42033   0.51370   1.000
    Zr27    Zr   0.56610   0.40419   0.01730   1.000
    Zr28    Zr   0.08314   0.90552   0.49284   1.000
    Zr29    Zr   0.06660   0.90487   0.02776   1.000
    Zr30    Zr   0.07225   0.41538   0.51372   1.000
    Zr31    Zr   0.09917   0.41460   0.00363   1.000
    O32     O    0.06727   0.32471   0.00181   1.000
    O33     O    0.98405   0.15264   0.98964   1.000
    O34     O    0.65860   0.42733   0.01785   1.000
    O35     O    0.35038   0.00726   0.49714   1.000
    O36     O    0.83592   0.00820   0.49781   1.000
    O37     O    0.65857   0.46758   0.49890   1.000
    O38     O    0.14601   0.46777   0.50010   1.000
    O39     O    0.95035   0.67153   0.49688   1.000
    O40     O    0.46628   0.64498   0.49940   1.000
    O41     O    0.54402   0.80709   0.50107   1.000
    O42     O    0.03078   0.83216   0.50005   1.000
    N43     N    0.73438   0.72581   0.25177   1.000
    O44     O    0.66177   0.70590   0.35791   1.000
    O45     O    0.71607   0.65471   0.35598   1.000
    O46     O    0.64924   0.72881   0.14362   1.000
    O47     O    0.83410   0.73716   0.35232   1.000
    O48     O    0.74120   0.61943   0.15738   1.000
    O49     O    0.73693   0.82056   0.35514   1.000
    O50     O    0.81654   0.74546   0.14944   1.000
    N51     N    0.75907   0.22685   0.74867   1.000
    O52     O    0.73696   0.15501   0.85008   1.000
    O53     O    0.65869   0.23139   0.64699   1.000
    O54     O    0.86621   0.23483   0.84899   1.000
    O55     O    0.84484   0.24144   0.64124   1.000
    O56     O    0.75856   0.12131   0.65376   1.000
    O57     O    0.74888   0.31744   0.85610   1.000
    N58     N    0.73828   0.24877   0.24849   1.000
    O59     O    0.63154   0.24038   0.15225   1.000
    O60     O    0.83841   0.24443   0.35011   1.000
    O61     O    0.76065   0.32055   0.14708   1.000
    O62     O    0.65232   0.23402   0.35588   1.000
    O63     O    0.73747   0.35458   0.34335   1.000
    O64     O    0.74891   0.15811   0.14103   1.000
    N65     N    0.76210   0.75047   0.74621   1.000
    O66     O    0.68018   0.73056   0.84848   1.000
    O67     O    0.84770   0.74790   0.85453   1.000
    O68     O    0.75779   0.65581   0.64236   1.000
    O69     O    0.75517   0.85638   0.84013   1.000
    O70     O    0.83410   0.77121   0.64046   1.000
    O71     O    0.77966   0.82193   0.64185   1.000
    O72     O    0.66181   0.74095   0.64621   1.000
    N73     N    0.24479   0.74678   0.75061   1.000
    O74     O    0.13812   0.75349   0.65327   1.000
    O75     O    0.35855   0.74718   0.84526   1.000
    O76     O    0.27153   0.81911   0.64553   1.000
    O77     O    0.23073   0.66378   0.84987   1.000
    O78     O    0.24032   0.82897   0.85967   1.000
    O79     O    0.23675   0.65636   0.64555   1.000
    N80     N    0.26216   0.23166   0.74476   1.000
    O81     O    0.16094   0.23218   0.64561   1.000
    O82     O    0.34670   0.23574   0.85190   1.000
    O83     O    0.34608   0.24546   0.63804   1.000
    O84     O    0.18030   0.21997   0.85312   1.000
    O85     O    0.25569   0.34433   0.83814   1.000
    O86     O    0.26587   0.12179   0.65013   1.000
    N87     N    0.23586   0.24456   0.25233   1.000
    O88     O    0.15146   0.23977   0.14930   1.000
    O89     O    0.33658   0.24329   0.35128   1.000
    O90     O    0.31792   0.25578   0.14815   1.000
    O91     O    0.15122   0.23028   0.35879   1.000
    O92     O    0.23248   0.35392   0.34752   1.000
    O93     O    0.24321   0.13179   0.15961   1.000
    N94     N    0.25180   0.72749   0.24750   1.000
    O95     O    0.13832   0.72739   0.15272   1.000
    O96     O    0.35783   0.72144   0.34500   1.000
    O97     O    0.26680   0.81105   0.14862   1.000
    O98     O    0.22526   0.65510   0.35242   1.000
    O99     O    0.26034   0.81795   0.35250   1.000
    O100    O    0.25734   0.64583   0.13871   1.000
loop_
    _geom_bond_atom_site_label_1
    _geom_bond_atom_site_label_2
    _geom_bond_distance
    _geom_bond_site_symmetry_2
    _ccdc_geom_bond_type
    Zr2    O32       1.00628      .   S
    Zr31   O32       1.00628      .   S
    Zr2    O33       0.96574  1_454   S
    Zr18   O33       0.96574      .   S
    Zr27   O34       0.95969      .   S
    Zr10   O34       0.95969      .   S
    Zr23   O35       0.94807      .   S
    Zr13   O35       0.94807  1_565   S
    Zr19   O36       0.94237      .   S
    Zr9    O36       0.94237  1_565   S
    Zr11   O37       0.94277      .   S
    Zr26   O37       0.94277      .   S
    Zr15   O38       0.95233      .   S
    Zr30   O38       0.95233      .   S
    Zr17   O39       0.96240      .   S
    Zr1    O39       0.96240      .   S
    Zr5    O40       0.94021      .   S
    Zr21   O40       0.94021      .   S
    Zr5    O41       0.96476      .   S
    Zr24   O41       0.96476      .   S
    Zr28   O42       0.93705      .   S
    Zr1    O42       0.93705  1_655   S
    N43    O44       2.03438      .   S
    Zr5    O44       2.84792      .   S
    N43    O45       2.04461      .   S
    Zr11   O45       2.87180      .   S
    N43    O46       1.95794      .   S
    Zr4    O46       2.90555  1_556   S
    N43    O47       1.87785      .   S
    Zr1    O47       2.84171      .   S
    N43    O48       1.86532      .   S
    Zr10   O48       2.82282      .   S
    N43    O49       1.90054      .   S
    Zr9    O49       2.85143      .   S
    N43    O50       2.02186      .   S
    Zr0    O50       2.82623      .   S
    N51    O52       2.00984      .   S
    Zr8    O52       2.79892      .   S
    N51    O53       1.93658      .   S
    Zr7    O53       2.91941      .   S
    N51    O54       1.91924      .   S
    Zr2    O54       2.96147  1_454   S
    N51    O55       2.11077      .   S
    Zr3    O55       3.01581      .   S
    N51    O56       1.84939      .   S
    Zr9    O56       2.77043  1_565   S
    N51    O57       1.96708      .   S
    Zr10   O57       2.91515  1_554   S
    N58    O59       1.86060      .   S
    Zr6    O59       2.79169      .   S
    N58    O60       1.93391      .   S
    Zr3    O60       2.91703      .   S
    N58    O61       2.00985      .   S
    Zr10   O61       2.79767      .   S
    N58    O62       2.11137      .   S
    Zr7    O62       3.01316      .   S
    N58    O63       1.85319      .   S
    Zr11   O63       2.77558      .   S
    N58    O64       1.96900      .   S
    Zr8    O64       2.91568  1_556   S
    N65    O66       2.02008      .   S
    Zr4    O66       2.82591      .   S
    N65    O67       1.96115      .   S
    Zr0    O67       2.90817  1_554   S
    N65    O68       1.90363      .   S
    Zr11   O68       2.85877      .   S
    N65    O69       1.85656      .   S
    Zr8    O69       2.81213  1_545   S
    N65    O70       2.02699      .   S
    Zr1    O70       2.82991      .   S
    N65    O71       2.04834      .   S
    Zr9    O71       2.88531      .   S
    N65    O72       1.87665      .   S
    Zr5    O72       2.83928      .   S
    N73    O74       1.91609      .   S
    Zr1    O74       2.85771  1_655   S
    N73    O75       1.89887      .   S
    Zr4    O75       2.83282      .   S
    N73    O76       2.07596      .   S
    Zr13   O76       2.90936      .   S
    N73    O77       2.03775      .   S
    Zr14   O77       2.85616      .   S
    N73    O78       1.94139      .   S
    Zr12   O78       2.89466  1_554   S
    N73    O79       1.89448      .   S
    Zr15   O79       2.85785      .   S
    N80    O81       1.89381      .   S
    Zr3    O81       2.86755  1_655   S
    N80    O82       1.92253      .   S
    Zr6    O82       2.86711  1_554   S
    N80    O83       2.08920      .   S
    Zr7    O83       2.98042      .   S
    N80    O84       2.10101      .   S
    Zr2    O84       3.02936  1_554   S
    N80    O85       1.89062      .   S
    Zr14   O85       2.84041      .   S
    N80    O86       1.88182      .   S
    Zr13   O86       2.81333  1_565   S
    N87    O88       1.85915      .   S
    Zr2    O88       2.67410      .   S
    N87    O89       1.89061      .   S
    Zr7    O89       2.86454      .   S
    N87    O90       2.03724      .   S
    Zr6    O90       2.84893      .   S
    N87    O91       2.08963      .   S
    Zr3    O91       2.98279  1_655   S
    N87    O92       1.88490      .   S
    Zr15   O92       2.81279      .   S
    N87    O93       1.88546      .   S
    Zr12   O93       2.83479  1_565   S
    N94    O95       1.89984      .   S
    Zr0    O95       2.83353  1_655   S
    N94    O96       1.91263      .   S
    Zr5    O96       2.85261      .   S
    N94    O97       2.03638      .   S
    Zr12   O97       2.85637      .   S
    N94    O98       2.07334      .   S
    Zr15   O98       2.90569      .   S
    N94    O99       1.89290      .   S
    Zr13   O99       2.85780      .   S
    N94    O100      1.93776      .   S
    Zr14   O100      2.89015  1_556   S
