# CIF file generated by openbabel 2.4.90, see http://openbabel.sf.net
data_I
_chemical_name_common ''
_cell_length_a 10.563
_cell_length_b 11.365
_cell_length_c 16.816
_cell_angle_alpha 98.438
_cell_angle_beta 95.506
_cell_angle_gamma 101.269
_space_group_name_H-M_alt 'P 1'
_space_group_name_Hall 'P 1'
loop_
    _symmetry_equiv_pos_as_xyz
    x,y,z
loop_
    _atom_site_label
    _atom_site_type_symbol
    _atom_site_fract_x
    _atom_site_fract_y
    _atom_site_fract_z
    _atom_site_occupancy
    C0      C    0.96304   0.74046   0.01736   1.000
    C1      C    0.97842   0.75879   0.50725   1.000
    C2      C    0.03536   0.23482   0.00000   1.000
    C3      C    0.99921   0.23615   0.49939   1.000
    C4      C    0.53413   0.73537   0.98075   1.000
    C5      C    0.51635   0.71959   0.49185   1.000
    C6      C    0.46258   0.23978   0.01387   1.000
    C7      C    0.49779   0.23923   0.49747   1.000
    C8      C    0.74622   0.02481   0.97872   1.000
    C9      C    0.76067   0.96167   0.51279   1.000
    C10     C    0.75109   0.45047   0.01840   1.000
    C11     C    0.73357   0.51483   0.48410   1.000
    C12     C    0.25146   0.95484   0.02366   1.000
    C13     C    0.27806   0.95462   0.51149   1.000
    C14     C    0.24779   0.52059   0.97503   1.000
    C15     C    0.21977   0.52016   0.48648   1.000
    C16     C    0.75051   0.73685   0.61544   1.000
    C17     C    0.73175   0.70972   0.11772   1.000
    C18     C    0.75661   0.21085   0.61328   1.000
    C19     C    0.73553   0.23360   0.11424   1.000
    C20     C    0.22797   0.74550   0.61708   1.000
    C21     C    0.23611   0.72811   0.11339   1.000
    C22     C    0.25995   0.20843   0.60996   1.000
    C23     C    0.23766   0.21804   0.11927   1.000
    C24     C    0.76516   0.76613   0.88011   1.000
    C25     C    0.74445   0.74051   0.38267   1.000
    C26     C    0.76283   0.24183   0.88283   1.000
    C27     C    0.73985   0.26515   0.38393   1.000
    C28     C    0.26105   0.74673   0.88496   1.000
    C29     C    0.26811   0.72817   0.38075   1.000
    C30     C    0.26127   0.25820   0.87796   1.000
    C31     C    0.23750   0.26676   0.38710   1.000
    C32     C    0.91285   0.79081   0.72948   1.000
    C33     C    0.87183   0.77206   0.24063   1.000
    C34     C    0.90407   0.26068   0.73541   1.000
    C35     C    0.88372   0.27174   0.23496   1.000
    C36     C    0.38755   0.79500   0.73266   1.000
    C37     C    0.39062   0.77412   0.23062   1.000
    C38     C    0.41036   0.25404   0.73033   1.000
    C39     C    0.37863   0.27270   0.24216   1.000
    C40     C    0.79681   0.88469   0.73464   1.000
    C41     C    0.75044   0.85913   0.23558   1.000
    C42     C    0.79810   0.36297   0.73115   1.000
    C43     C    0.78112   0.37711   0.23480   1.000
    C44     C    0.26923   0.88543   0.74088   1.000
    C45     C    0.26997   0.86129   0.23917   1.000
    C46     C    0.31043   0.36175   0.72694   1.000
    C47     C    0.27463   0.37590   0.23284   1.000
    C48     C    0.62578   0.70129   0.75722   1.000
    C49     C    0.58402   0.68443   0.26768   1.000
    C50     C    0.61366   0.20319   0.76262   1.000
    C51     C    0.59289   0.21534   0.26140   1.000
    C52     C    0.10560   0.70132   0.76809   1.000
    C53     C    0.10858   0.67862   0.26515   1.000
    C54     C    0.11935   0.20479   0.75549   1.000
    C55     C    0.08734   0.22374   0.26661   1.000
    C56     C    0.74897   0.61624   0.76268   1.000
    C57     C    0.70044   0.59089   0.26427   1.000
    C58     C    0.71685   0.09830   0.76224   1.000
    C59     C    0.69843   0.11276   0.26624   1.000
    C60     C    0.22535   0.61313   0.75926   1.000
    C61     C    0.22746   0.58880   0.25682   1.000
    C62     C    0.22300   0.10114   0.76399   1.000
    C63     C    0.18624   0.11514   0.26940   1.000
    C64     C    0.80821   0.79001   0.72067   1.000
    C65     C    0.76689   0.76589   0.22532   1.000
    C66     C    0.80180   0.26596   0.72136   1.000
    C67     C    0.78191   0.27951   0.22245   1.000
    C68     C    0.28226   0.79163   0.72456   1.000
    C69     C    0.28493   0.76836   0.22175   1.000
    C70     C    0.30936   0.26375   0.71728   1.000
    C71     C    0.27703   0.27869   0.22579   1.000
    C72     C    0.73096   0.70895   0.77265   1.000
    C73     C    0.68868   0.68557   0.27734   1.000
    C74     C    0.71567   0.19581   0.77476   1.000
    C75     C    0.69503   0.20986   0.27577   1.000
    C76     C    0.21118   0.70636   0.77660   1.000
    C77     C    0.21394   0.68240   0.27333   1.000
    C78     C    0.22097   0.19845   0.77137   1.000
    C79     C    0.18808   0.21330   0.27959   1.000
    C80     C    0.83378   0.82509   0.56218   1.000
    C81     C    0.83434   0.78974   0.07684   1.000
    C82     C    0.86202   0.27592   0.56823   1.000
    C83     C    0.81494   0.33417   0.07294   1.000
    C84     C    0.31848   0.82826   0.56940   1.000
    C85     C    0.31215   0.83438   0.07583   1.000
    C86     C    0.36222   0.27930   0.56517   1.000
    C87     C    0.33740   0.29423   0.07407   1.000
    C88     C    0.77340   0.60745   0.59291   1.000
    C89     C    0.74493   0.57562   0.10756   1.000
    C90     C    0.75542   0.06986   0.60490   1.000
    C91     C    0.77286   0.11010   0.08845   1.000
    C92     C    0.23766   0.61173   0.59448   1.000
    C93     C    0.27798   0.60775   0.08482   1.000
    C94     C    0.26109   0.06922   0.59949   1.000
    C95     C    0.24964   0.08319   0.11015   1.000
    C96     C    0.60670   0.74325   0.60056   1.000
    C97     C    0.59408   0.72823   0.09021   1.000
    C98     C    0.61882   0.23265   0.59313   1.000
    C99     C    0.58704   0.22420   0.09814   1.000
    C100    C    0.08446   0.76161   0.60459   1.000
    C101    C    0.08662   0.71413   0.09853   1.000
    C102    C    0.12022   0.22924   0.59353   1.000
    C103    C    0.09877   0.23514   0.09253   1.000
    C104    C    0.66239   0.68592   0.92075   1.000
    C105    C    0.66195   0.65239   0.43626   1.000
    C106    C    0.68347   0.14155   0.92426   1.000
    C107    C    0.63493   0.19931   0.42907   1.000
    C108    C    0.18557   0.64096   0.92321   1.000
    C109    C    0.17766   0.64527   0.42818   1.000
    C110    C    0.16150   0.18172   0.92296   1.000
    C111    C    0.13393   0.19585   0.43111   1.000
    C112    C    0.75028   0.89978   0.88936   1.000
    C113    C    0.71829   0.86895   0.40422   1.000
    C114    C    0.72628   0.36558   0.90864   1.000
    C115    C    0.73977   0.40595   0.39231   1.000
    C116    C    0.22022   0.86750   0.91378   1.000
    C117    C    0.25970   0.86221   0.40351   1.000
    C118    C    0.25065   0.39339   0.88800   1.000
    C119    C    0.23842   0.40640   0.39894   1.000
    C120    C    0.90357   0.75017   0.90832   1.000
    C121    C    0.88923   0.73823   0.39849   1.000
    C122    C    0.91133   0.25081   0.89862   1.000
    C123    C    0.87787   0.24403   0.40409   1.000
    C124    C    0.41049   0.75977   0.89905   1.000
    C125    C    0.41137   0.71122   0.39317   1.000
    C126    C    0.39991   0.23986   0.90421   1.000
    C127    C    0.37681   0.24479   0.40300   1.000
    C128    C    0.89494   0.56308   0.98967   1.000
    C129    C    0.92228   0.58427   0.48650   1.000
    C130    C    0.93275   0.07046   0.97929   1.000
    C131    C    0.91116   0.05473   0.48284   1.000
    C132    C    0.43304   0.57042   0.97216   1.000
    C133    C    0.41622   0.57038   0.50696   1.000
    C134    C    0.40000   0.06021   0.99315   1.000
    C135    C    0.42270   0.05990   0.48279   1.000
    C136    C    0.57168   0.89458   0.51030   1.000
    C137    C    0.59993   0.91432   0.00695   1.000
    C138    C    0.58356   0.42033   0.51370   1.000
    C139    C    0.56610   0.40419   0.01730   1.000
    C140    C    0.08314   0.90552   0.49284   1.000
    C141    C    0.06660   0.90487   0.02776   1.000
    C142    C    0.07225   0.41538   0.51372   1.000
    C143    C    0.09917   0.41460   0.00363   1.000
    O144    O    0.06727   0.32471   0.00181   1.000
    O145    O    0.06707   0.23498   0.04627   1.000
    O146    O    0.98405   0.15264   0.98964   1.000
    O147    O    0.39999   0.26700   0.04397   1.000
    O148    O    0.52481   0.23199   0.05601   1.000
    O149    O    0.43124   0.23982   0.95904   1.000
    O150    O    0.65860   0.42733   0.01785   1.000
    O151    O    0.89869   0.76510   0.04710   1.000
    O152    O    0.02483   0.72729   0.05795   1.000
    O153    O    0.93331   0.74532   0.96284   1.000
    O154    O    0.78302   0.39232   0.04567   1.000
    O155    O    0.73869   0.40803   0.96352   1.000
    O156    O    0.28181   0.89461   0.04975   1.000
    O157    O    0.25055   0.01902   0.06690   1.000
    O158    O    0.23584   0.91117   0.96872   1.000
    O159    O    0.77524   0.28389   0.09359   1.000
    O160    O    0.28753   0.25613   0.09667   1.000
    O161    O    0.27413   0.78124   0.09461   1.000
    O162    O    0.78304   0.74973   0.09728   1.000
    O163    O    0.25705   0.66793   0.09910   1.000
    O164    O    0.26288   0.56417   0.02992   1.000
    O165    O    0.75419   0.17185   0.10134   1.000
    O166    O    0.75954   0.06745   0.03358   1.000
    O167    O    0.66291   0.71897   0.10397   1.000
    O168    O    0.56410   0.73180   0.03548   1.000
    O169    O    0.16821   0.22659   0.10590   1.000
    O170    O    0.66129   0.22890   0.10619   1.000
    O171    O    0.16137   0.72112   0.10596   1.000
    O172    O    0.73834   0.64267   0.11264   1.000
    O173    O    0.24365   0.15061   0.11471   1.000
    O174    O    0.26052   0.74823   0.16757   1.000
    O175    O    0.75872   0.25655   0.16834   1.000
    O176    O    0.74932   0.73780   0.17152   1.000
    O177    O    0.25734   0.24836   0.17253   1.000
    O178    O    0.33777   0.77124   0.22619   1.000
    O179    O    0.27745   0.81483   0.23046   1.000
    O180    O    0.24944   0.72538   0.24754   1.000
    O181    O    0.78152   0.32831   0.22862   1.000
    O182    O    0.83281   0.27562   0.22870   1.000
    O183    O    0.73847   0.24468   0.24911   1.000
    O184    O    0.75866   0.81251   0.23045   1.000
    O185    O    0.81936   0.76897   0.23298   1.000
    O186    O    0.72779   0.72573   0.25133   1.000
    O187    O    0.27583   0.32730   0.22931   1.000
    O188    O    0.32783   0.27569   0.23398   1.000
    O189    O    0.23255   0.24599   0.25269   1.000
    O190    O    0.22070   0.63560   0.26508   1.000
    O191    O    0.64396   0.21260   0.26859   1.000
    O192    O    0.69456   0.63823   0.27081   1.000
    O193    O    0.16126   0.68051   0.26924   1.000
    O194    O    0.69673   0.16131   0.27101   1.000
    O195    O    0.13771   0.21852   0.27310   1.000
    O196    O    0.63635   0.68500   0.27251   1.000
    O197    O    0.18716   0.16422   0.27450   1.000
    O198    O    0.24102   0.70528   0.32704   1.000
    O199    O    0.71744   0.23750   0.32985   1.000
    O200    O    0.71656   0.71304   0.33000   1.000
    O201    O    0.21279   0.24003   0.33335   1.000
    O202    O    0.33974   0.71969   0.38696   1.000
    O203    O    0.26390   0.79519   0.39213   1.000
    O204    O    0.22288   0.68672   0.40446   1.000
    O205    O    0.81684   0.73937   0.39058   1.000
    O206    O    0.73137   0.80473   0.39344   1.000
    O207    O    0.70320   0.69645   0.40947   1.000
    O208    O    0.73981   0.33555   0.38812   1.000
    O209    O    0.80886   0.25459   0.39401   1.000
    O210    O    0.68739   0.23223   0.40650   1.000
    O211    O    0.23796   0.33658   0.39302   1.000
    O212    O    0.30715   0.25578   0.39505   1.000
    O213    O    0.18571   0.23131   0.40911   1.000
    O214    O    0.73667   0.46039   0.43821   1.000
    O215    O    0.46386   0.71540   0.44251   1.000
    O216    O    0.22910   0.46328   0.44271   1.000
    O217    O    0.43730   0.24201   0.45024   1.000
    O218    O    0.26888   0.90842   0.45750   1.000
    O219    O    0.93854   0.24009   0.45174   1.000
    O220    O    0.73948   0.91531   0.45851   1.000
    O221    O    0.06657   0.21600   0.46525   1.000
    O222    O    0.35038   0.00726   0.49714   1.000
    O223    O    0.83592   0.00820   0.49781   1.000
    O224    O    0.65857   0.46758   0.49890   1.000
    O225    O    0.75349   0.56114   0.53850   1.000
    O226    O    0.14601   0.46777   0.50010   1.000
    O227    O    0.22871   0.56595   0.54048   1.000
    O228    O    0.95035   0.67153   0.49688   1.000
    O229    O    0.46628   0.64498   0.49940   1.000
    O230    O    0.54402   0.80709   0.50107   1.000
    O231    O    0.03078   0.83216   0.50005   1.000
    O232    O    0.43001   0.25926   0.53132   1.000
    O233    O    0.55830   0.23594   0.54530   1.000
    O234    O    0.05971   0.23269   0.54646   1.000
    O235    O    0.03144   0.76020   0.55592   1.000
    O236    O    0.26958   0.01192   0.55549   1.000
    O237    O    0.75805   0.01576   0.55885   1.000
    O238    O    0.79214   0.78097   0.58881   1.000
    O239    O    0.31109   0.24386   0.58757   1.000
    O240    O    0.80931   0.24338   0.59076   1.000
    O241    O    0.27322   0.78688   0.59324   1.000
    O242    O    0.76195   0.67215   0.60417   1.000
    O243    O    0.68771   0.22175   0.60321   1.000
    O244    O    0.19008   0.21883   0.60175   1.000
    O245    O    0.23281   0.67862   0.60578   1.000
    O246    O    0.26052   0.13882   0.60473   1.000
    O247    O    0.67861   0.74005   0.60800   1.000
    O248    O    0.15621   0.75355   0.61083   1.000
    O249    O    0.75601   0.14035   0.60909   1.000
    O250    O    0.28465   0.23609   0.66362   1.000
    O251    O    0.77920   0.23840   0.66732   1.000
    O252    O    0.77936   0.76343   0.66806   1.000
    O253    O    0.25511   0.76856   0.67082   1.000
    O254    O    0.30989   0.31275   0.72211   1.000
    O255    O    0.35986   0.25890   0.72381   1.000
    O256    O    0.26516   0.23110   0.74433   1.000
    O257    O    0.86053   0.79041   0.72508   1.000
    O258    O    0.80251   0.83735   0.72766   1.000
    O259    O    0.76959   0.74948   0.74666   1.000
    O260    O    0.79995   0.31446   0.72626   1.000
    O261    O    0.85294   0.26332   0.72839   1.000
    O262    O    0.75873   0.23088   0.74806   1.000
    O263    O    0.33491   0.79331   0.72861   1.000
    O264    O    0.27575   0.83853   0.73272   1.000
    O265    O    0.24672   0.74899   0.75058   1.000
    O266    O    0.17016   0.20162   0.76343   1.000
    O267    O    0.67837   0.70512   0.76494   1.000
    O268    O    0.21826   0.65975   0.76793   1.000
    O269    O    0.71626   0.14705   0.76850   1.000
    O270    O    0.66466   0.19950   0.76869   1.000
    O271    O    0.73996   0.66259   0.76767   1.000
    O272    O    0.22198   0.14979   0.76768   1.000
    O273    O    0.15839   0.70384   0.77235   1.000
    O274    O    0.24112   0.22832   0.82467   1.000
    O275    O    0.74806   0.73754   0.82638   1.000
    O276    O    0.73925   0.21882   0.82879   1.000
    O277    O    0.23611   0.72654   0.83078   1.000
    O278    O    0.25596   0.32580   0.88298   1.000
    O279    O    0.33059   0.24903   0.89109   1.000
    O280    O    0.21138   0.21996   0.90046   1.000
    O281    O    0.75772   0.83295   0.88474   1.000
    O282    O    0.83437   0.75815   0.89422   1.000
    O283    O    0.71378   0.72603   0.90043   1.000
    O284    O    0.83708   0.24632   0.89072   1.000
    O285    O    0.74456   0.30371   0.89573   1.000
    O286    O    0.72315   0.19169   0.90354   1.000
    O287    O    0.33577   0.75325   0.89200   1.000
    O288    O    0.24064   0.80711   0.89937   1.000
    O289    O    0.22331   0.69384   0.90408   1.000
    O290    O    0.24922   0.45699   0.93151   1.000
    O291    O    0.74825   0.96229   0.93404   1.000
    O292    O    0.47231   0.74757   0.93990   1.000
    O293    O    0.59826   0.71065   0.95075   1.000
    O294    O    0.21668   0.58077   0.94912   1.000
    O295    O    0.71484   0.08318   0.95149   1.000
    O296    O    0.90610   0.79194   0.53471   1.000
    O297    O    0.79722   0.89338   0.53748   1.000
    O298    O    0.93061   0.25603   0.53381   1.000
    O299    O    0.29827   0.89144   0.54044   1.000
    O300    O    0.74801   0.51305   0.06298   1.000
    O301    O    0.56153   0.73142   0.54620   1.000
    O302    O    0.58915   0.68599   0.46405   1.000
    O303    O    0.69776   0.58361   0.46018   1.000
    O304    O    0.56636   0.21927   0.46327   1.000
    O305    O    0.19872   0.58271   0.45733   1.000
    O306    O    0.09843   0.20827   0.96148   1.000
    O307    O    0.93382   0.74851   0.45287   1.000
    O308    O    0.97335   0.24281   0.94931   1.000
loop_
    _geom_bond_atom_site_label_1
    _geom_bond_atom_site_label_2
    _geom_bond_distance
    _geom_bond_site_symmetry_2
    _ccdc_geom_bond_type
    C2     O144      1.00628      .   S
    C143   O144      1.00628      .   S
    C2     O145      0.81656      .   S
    C103   O145      0.81656      .   S
    C2     O146      0.96574  1_454   S
    C130   O146      0.96574      .   S
    C6     O147      0.94191      .   S
    C87    O147      0.94191      .   S
    C6     O148      0.94538      .   S
    C99    O148      0.94538      .   S
    C6     O149      0.94938  1_554   S
    C126   O149      0.94938      .   S
    C139   O150      0.95969      .   S
    C10    O150      0.95969      .   S
    C0     O151      0.94290      .   S
    C81    O151      0.94290      .   S
    C0     O152      0.94698  1_655   S
    C101   O152      0.94698      .   S
    C0     O153      0.95321  1_554   S
    C120   O153      0.95321      .   S
    C10    O154      0.95243      .   S
    C83    O154      0.95243      .   S
    C10    O155      0.96070  1_554   S
    C114   O155      0.96070      .   S
    C12    O156      0.95427      .   S
    C85    O156      0.95427      .   S
    C12    O157      0.95354  1_565   S
    C95    O157      0.95354      .   S
    C12    O158      0.96499  1_554   S
    C116   O158      0.96499      .   S
    C83    O159      0.78459      .   S
    C19    O159      0.78459      .   S
    C87    O160      0.77904      .   S
    C23    O160      0.77904      .   S
    C85    O161      0.78179      .   S
    C21    O161      0.78179      .   S
    C81    O162      0.77708      .   S
    C17    O162      0.77708      .   S
    C93    O163      0.77165      .   S
    C21    O163      0.77165      .   S
    C93    O164      0.96411      .   S
    C14    O164      0.96411  1_556   S
    C91    O165      0.77203      .   S
    C19    O165      0.77203      .   S
    C91    O166      0.96081      .   S
    C8     O166      0.96081  1_556   S
    C97    O167      0.77333      .   S
    C17    O167      0.77333      .   S
    C97    O168      0.95341      .   S
    C4     O168      0.95341  1_556   S
    C103   O169      0.77504      .   S
    C23    O169      0.77504      .   S
    C99    O170      0.77290      .   S
    C19    O170      0.77290      .   S
    C101   O171      0.77391      .   S
    C21    O171      0.77391      .   S
    C89    O172      0.77173      .   S
    C17    O172      0.77173      .   S
    C95    O173      0.77442      .   S
    C23    O173      0.77442      .   S
    C21    O174      0.90534      .   S
    C69    O174      0.90534      .   S
    C19    O175      0.90467      .   S
    C67    O175      0.90467      .   S
    C17    O176      0.90257      .   S
    C65    O176      0.90257      .   S
    C23    O177      0.89994      .   S
    C71    O177      0.89994      .   S
    C69    O178      0.54988      .   S
    C37    O178      0.54988      .   S
    C69    O179      0.54992      .   S
    C45    O179      0.54992      .   S
    C69    O180      0.76750      .   S
    C77    O180      0.76750      .   S
    C67    O181      0.55000      .   S
    C43    O181      0.55000      .   S
    C67    O182      0.54949      .   S
    C35    O182      0.54949      .   S
    C67    O183      0.76737      .   S
    C75    O183      0.76737      .   S
    C65    O184      0.54936      .   S
    C41    O184      0.54936      .   S
    C65    O185      0.54987      .   S
    C33    O185      0.54987      .   S
    C65    O186      0.76796      .   S
    C73    O186      0.76796      .   S
    C71    O187      0.54962      .   S
    C47    O187      0.54962      .   S
    C71    O188      0.54988      .   S
    C39    O188      0.54988      .   S
    C71    O189      0.76504      .   S
    C79    O189      0.76504      .   S
    C61    O190      0.54984      .   S
    C77    O190      0.54984      .   S
    C51    O191      0.54931      .   S
    C75    O191      0.54931      .   S
    C57    O192      0.54989      .   S
    C73    O192      0.54989      .   S
    C53    O193      0.54990      .   S
    C77    O193      0.54990      .   S
    C59    O194      0.54983      .   S
    C75    O194      0.54983      .   S
    C55    O195      0.54919      .   S
    C79    O195      0.54919      .   S
    C49    O196      0.54955      .   S
    C73    O196      0.54955      .   S
    C63    O197      0.54976      .   S
    C79    O197      0.54976      .   S
    C77    O198      0.90415      .   S
    C29    O198      0.90415      .   S
    C75    O199      0.90968      .   S
    C27    O199      0.90968      .   S
    C73    O200      0.89521      .   S
    C25    O200      0.89521      .   S
    C79    O201      0.90594      .   S
    C31    O201      0.90594      .   S
    C29    O202      0.78036      .   S
    C125   O202      0.78036      .   S
    C29    O203      0.76868      .   S
    C117   O203      0.76868      .   S
    C29    O204      0.78290      .   S
    C109   O204      0.78290      .   S
    C25    O205      0.76647      .   S
    C121   O205      0.76647      .   S
    C25    O206      0.76812      .   S
    C113   O206      0.76812      .   S
    C25    O207      0.81375      .   S
    C105   O207      0.81375      .   S
    C27    O208      0.79292      .   S
    C115   O208      0.79292      .   S
    C27    O209      0.76873      .   S
    C123   O209      0.76873      .   S
    C27    O210      0.76946      .   S
    C107   O210      0.76946      .   S
    C31    O211      0.78404      .   S
    C119   O211      0.78404      .   S
    C31    O212      0.77250      .   S
    C127   O212      0.77250      .   S
    C31    O213      0.77130      .   S
    C111   O213      0.77130      .   S
    C115   O214      0.92310      .   S
    C11    O214      0.92310      .   S
    C125   O215      0.94229      .   S
    C5     O215      0.94229      .   S
    C119   O216      0.93194      .   S
    C15    O216      0.93194      .   S
    C127   O217      0.97877      .   S
    C7     O217      0.97877      .   S
    C117   O218      0.96578      .   S
    C13    O218      0.96578      .   S
    C123   O219      0.98894      .   S
    C3     O219      0.98894      .   S
    C113   O220      0.96675      .   S
    C9     O220      0.96675      .   S
    C111   O221      0.99591      .   S
    C3     O221      0.99591  1_655   S
    C135   O222      0.94807      .   S
    C13    O222      0.94807  1_565   S
    C131   O223      0.94237      .   S
    C9     O223      0.94237  1_565   S
    C11    O224      0.94277      .   S
    C138   O224      0.94277      .   S
    C11    O225      0.96781      .   S
    C88    O225      0.96781      .   S
    C15    O226      0.95233      .   S
    C142   O226      0.95233      .   S
    C15    O227      0.96429      .   S
    C92    O227      0.96429      .   S
    C129   O228      0.96240      .   S
    C1     O228      0.96240      .   S
    C5     O229      0.94021      .   S
    C133   O229      0.94021      .   S
    C5     O230      0.96476      .   S
    C136   O230      0.96476      .   S
    C140   O231      0.93705      .   S
    C1     O231      0.93705  1_655   S
    C7     O232      0.99619      .   S
    C86    O232      0.99619      .   S
    C7     O233      0.98817      .   S
    C98    O233      0.98817      .   S
    C3     O234      0.97892  1_655   S
    C102   O234      0.97892      .   S
    C1     O235      0.94259  1_655   S
    C100   O235      0.94259      .   S
    C13    O236      0.93475  1_565   S
    C94    O236      0.93475      .   S
    C9     O237      0.92171  1_565   S
    C90    O237      0.92171      .   S
    C80    O238      0.81418      .   S
    C16    O238      0.81418      .   S
    C86    O239      0.77094      .   S
    C22    O239      0.77094      .   S
    C82    O240      0.76894      .   S
    C18    O240      0.76894      .   S
    C84    O241      0.78397      .   S
    C20    O241      0.78397      .   S
    C88    O242      0.76779      .   S
    C16    O242      0.76779      .   S
    C98    O243      0.76902      .   S
    C18    O243      0.76902      .   S
    C102   O244      0.77273      .   S
    C22    O244      0.77273      .   S
    C92    O245      0.76890      .   S
    C20    O245      0.76890      .   S
    C94    O246      0.78428      .   S
    C22    O246      0.78428      .   S
    C96    O247      0.76663      .   S
    C16    O247      0.76663      .   S
    C100   O248      0.78006      .   S
    C20    O248      0.78006      .   S
    C90    O249      0.79263      .   S
    C18    O249      0.79263      .   S
    C22    O250      0.90589      .   S
    C70    O250      0.90589      .   S
    C18    O251      0.90911      .   S
    C66    O251      0.90911      .   S
    C16    O252      0.89488      .   S
    C64    O252      0.89488      .   S
    C20    O253      0.90501      .   S
    C68    O253      0.90501      .   S
    C70    O254      0.54971      .   S
    C46    O254      0.54971      .   S
    C70    O255      0.54924      .   S
    C38    O255      0.54924      .   S
    C70    O256      0.76487      .   S
    C78    O256      0.76487      .   S
    C64    O257      0.54952      .   S
    C32    O257      0.54952      .   S
    C64    O258      0.54987      .   S
    C40    O258      0.54987      .   S
    C64    O259      0.76781      .   S
    C72    O259      0.76781      .   S
    C66    O260      0.54980      .   S
    C42    O260      0.54980      .   S
    C66    O261      0.54933      .   S
    C34    O261      0.54933      .   S
    C66    O262      0.76700      .   S
    C74    O262      0.76700      .   S
    C68    O263      0.54994      .   S
    C36    O263      0.54994      .   S
    C68    O264      0.54986      .   S
    C44    O264      0.54986      .   S
    C68    O265      0.76799      .   S
    C76    O265      0.76799      .   S
    C54    O266      0.54991      .   S
    C78    O266      0.54991      .   S
    C48    O267      0.54990      .   S
    C72    O267      0.54990      .   S
    C60    O268      0.54995      .   S
    C76    O268      0.54995      .   S
    C58    O269      0.54998      .   S
    C74    O269      0.54998      .   S
    C50    O270      0.54953      .   S
    C74    O270      0.54953      .   S
    C56    O271      0.54930      .   S
    C72    O271      0.54930      .   S
    C62    O272      0.54965      .   S
    C78    O272      0.54965      .   S
    C52    O273      0.54987      .   S
    C76    O273      0.54987      .   S
    C78    O274      0.89979      .   S
    C30    O274      0.89979      .   S
    C72    O275      0.90228      .   S
    C24    O275      0.90228      .   S
    C74    O276      0.90407      .   S
    C26    O276      0.90407      .   S
    C76    O277      0.90613      .   S
    C28    O277      0.90613      .   S
    C30    O278      0.77407      .   S
    C118   O278      0.77407      .   S
    C30    O279      0.77539      .   S
    C126   O279      0.77539      .   S
    C30    O280      0.77889      .   S
    C110   O280      0.77889      .   S
    C24    O281      0.77211      .   S
    C112   O281      0.77211      .   S
    C24    O282      0.77321      .   S
    C120   O282      0.77321      .   S
    C24    O283      0.77696      .   S
    C104   O283      0.77696      .   S
    C26    O284      0.77315      .   S
    C122   O284      0.77315      .   S
    C26    O285      0.77147      .   S
    C114   O285      0.77147      .   S
    C26    O286      0.78405      .   S
    C106   O286      0.78405      .   S
    C28    O287      0.77401      .   S
    C124   O287      0.77401      .   S
    C28    O288      0.77154      .   S
    C116   O288      0.77154      .   S
    C28    O289      0.78186      .   S
    C108   O289      0.78186      .   S
    C118   O290      0.95360      .   S
    C14    O290      0.95360      .   S
    C112   O291      0.96025      .   S
    C8     O291      0.96025  1_545   S
    C124   O292      0.94589      .   S
    C4     O292      0.94589      .   S
    C104   O293      0.94377      .   S
    C4     O293      0.94377      .   S
    C108   O294      0.95579      .   S
    C14    O294      0.95579      .   S
    C106   O295      0.95157      .   S
    C8     O295      0.95157      .   S
    C80    O296      1.03337      .   S
    C1     O296      1.03337      .   S
    C80    O297      1.05111      .   S
    C9     O297      1.05111      .   S
    C82    O298      1.00856      .   S
    C3     O298      1.00856      .   S
    C84    O299      0.96994      .   S
    C13    O299      0.96994      .   S
    C89    O300      0.96235      .   S
    C10    O300      0.96235      .   S
    C96    O301      0.96768      .   S
    C5     O301      0.96768      .   S
    C105   O302      1.04257      .   S
    C5     O302      1.04257      .   S
    C105   O303      1.04624      .   S
    C11    O303      1.04624      .   S
    C107   O304      1.00628      .   S
    C7     O304      1.00628      .   S
    C109   O305      0.96871      .   S
    C15    O305      0.96871      .   S
    C110   O306      1.02881      .   S
    C2     O306      1.02881  1_554   S
    C121   O307      0.96759      .   S
    C1     O307      0.96759      .   S
    C122   O308      1.05011      .   S
    C2     O308      1.05011  1_454   S
