# CIF file generated by openbabel 2.4.90, see http://openbabel.sf.net
data_I
_chemical_name_common ''
_cell_length_a 16.563
_cell_length_b 16.569
_cell_length_c 16.571
_cell_angle_alpha 105.564
_cell_angle_beta 105.413
_cell_angle_gamma 105.367
_space_group_name_H-M_alt 'P 1'
_space_group_name_Hall 'P 1'
loop_
    _symmetry_equiv_pos_as_xyz
    x,y,z
loop_
    _atom_site_label
    _atom_site_type_symbol
    _atom_site_fract_x
    _atom_site_fract_y
    _atom_site_fract_z
    _atom_site_occupancy
    H0      H    0.46802   0.90932   0.74430   1.000
    H1      H    0.37025   0.86688   0.76533   1.000
    H2      H    0.62978   0.23464   0.13316   1.000
    H3      H    0.53202   0.25574   0.09064   1.000
    H4      H    0.59769   0.78791   0.85529   1.000
    H5      H    0.61300   0.90297   0.90311   1.000
    H6      H    0.59771   0.85525   0.78804   1.000
    H7      H    0.44676   0.74116   0.67371   1.000
    H8      H    0.35420   0.70780   0.70769   1.000
    H9      H    0.44665   0.67365   0.74124   1.000
    H10     H    0.39633   0.29313   0.03030   1.000
    H11     H    0.40170   0.23748   0.92560   1.000
    H12     H    0.76255   0.59809   0.07419   1.000
    H13     H    0.70691   0.60329   0.96954   1.000
    H14     H    0.29433   0.22626   0.78354   1.000
    H15     H    0.34417   0.34401   0.81281   1.000
    H16     H    0.22641   0.29451   0.78360   1.000
    H17     H    0.23379   0.23426   0.98761   1.000
    H18     H    0.22920   0.16193   0.88366   1.000
    H19     H    0.16177   0.22943   0.88358   1.000
    H20     H    0.74448   0.46818   0.90970   1.000
    H21     H    0.76549   0.37033   0.86690   1.000
    H22     H    0.13282   0.62974   0.23460   1.000
    H23     H    0.09035   0.53197   0.25550   1.000
    H24     H    0.85552   0.59776   0.78841   1.000
    H25     H    0.90319   0.61317   0.90342   1.000
    H26     H    0.78818   0.59787   0.85582   1.000
    H27     H    0.67402   0.44681   0.74159   1.000
    H28     H    0.70809   0.35421   0.70798   1.000
    H29     H    0.74164   0.44663   0.67399   1.000
    H30     H    0.03013   0.39592   0.29271   1.000
    H31     H    0.92553   0.40135   0.23732   1.000
    H32     H    0.07437   0.76270   0.59846   1.000
    H33     H    0.96982   0.70732   0.60388   1.000
    H34     H    0.78353   0.29420   0.22631   1.000
    H35     H    0.81284   0.34421   0.34413   1.000
    H36     H    0.78360   0.22636   0.29444   1.000
    H37     H    0.98739   0.23325   0.23350   1.000
    H38     H    0.88350   0.22873   0.16150   1.000
    H39     H    0.88339   0.16138   0.22888   1.000
    H40     H    0.90973   0.74455   0.46814   1.000
    H41     H    0.86718   0.76541   0.37033   1.000
    H42     H    0.23451   0.13298   0.62969   1.000
    H43     H    0.25551   0.09016   0.53185   1.000
    H44     H    0.78821   0.85596   0.59782   1.000
    H45     H    0.90321   0.90361   0.61319   1.000
    H46     H    0.85566   0.78861   0.59780   1.000
    H47     H    0.74166   0.67422   0.44674   1.000
    H48     H    0.70821   0.70809   0.35418   1.000
    H49     H    0.67404   0.74186   0.44665   1.000
    H50     H    0.29301   0.03040   0.39652   1.000
    H51     H    0.23744   0.92578   0.40168   1.000
    H52     H    0.59824   0.07441   0.76258   1.000
    H53     H    0.60372   0.96975   0.70698   1.000
    H54     H    0.22645   0.78365   0.29416   1.000
    H55     H    0.34420   0.81286   0.34399   1.000
    H56     H    0.29462   0.78361   0.22600   1.000
    H57     H    0.23387   0.98760   0.23385   1.000
    H58     H    0.16179   0.88372   0.22910   1.000
    H59     H    0.22920   0.88351   0.16169   1.000
    H60     H    0.53200   0.09073   0.25570   1.000
    H61     H    0.62977   0.13317   0.23467   1.000
    H62     H    0.37025   0.76542   0.86684   1.000
    H63     H    0.46801   0.74432   0.90936   1.000
    H64     H    0.40233   0.21215   0.14471   1.000
    H65     H    0.38703   0.09709   0.09689   1.000
    H66     H    0.40231   0.14480   0.21195   1.000
    H67     H    0.55326   0.25890   0.32629   1.000
    H68     H    0.64582   0.29225   0.29231   1.000
    H69     H    0.55337   0.32641   0.25876   1.000
    H70     H    0.60369   0.70692   0.96969   1.000
    H71     H    0.59832   0.76258   0.07441   1.000
    H72     H    0.23748   0.40197   0.92580   1.000
    H73     H    0.29310   0.39676   0.03046   1.000
    H74     H    0.70569   0.77379   0.21646   1.000
    H75     H    0.65585   0.65604   0.18719   1.000
    H76     H    0.77361   0.70554   0.21633   1.000
    H77     H    0.76624   0.76580   0.01239   1.000
    H78     H    0.77082   0.83812   0.11635   1.000
    H79     H    0.83825   0.77062   0.11642   1.000
    H80     H    0.25554   0.53187   0.09030   1.000
    H81     H    0.23452   0.62972   0.13300   1.000
    H82     H    0.86720   0.37031   0.76535   1.000
    H83     H    0.90966   0.46808   0.74444   1.000
    H84     H    0.14450   0.40229   0.21159   1.000
    H85     H    0.09683   0.38688   0.09658   1.000
    H86     H    0.21184   0.40219   0.14418   1.000
    H87     H    0.32599   0.55324   0.25841   1.000
    C88     C    0.20471   0.55563   0.10915   1.000
    C89     C    0.18532   0.52614   0.18528   1.000
    C90     C    0.89092   0.44440   0.79525   1.000
    C91     C    0.15768   0.42356   0.15744   1.000
    H92     H    0.29192   0.64584   0.29202   1.000
    H93     H    0.25839   0.55342   0.32601   1.000
    H94     H    0.96989   0.60413   0.70729   1.000
    H95     H    0.07449   0.59870   0.76268   1.000
    H96     H    0.92564   0.23735   0.40153   1.000
    H97     H    0.03020   0.29273   0.39612   1.000
    H98     H    0.21649   0.70585   0.77368   1.000
    H99     H    0.18717   0.65584   0.65586   1.000
    H100    H    0.21641   0.77368   0.70556   1.000
    H101    H    0.01263   0.76680   0.76645   1.000
    H102    H    0.11652   0.77132   0.83850   1.000
    H103    H    0.11663   0.83867   0.77112   1.000
    H104    H    0.09029   0.25551   0.53185   1.000
    H105    H    0.13283   0.23465   0.62967   1.000
    H106    H    0.76551   0.86709   0.37030   1.000
    H107    H    0.74450   0.90989   0.46814   1.000
    H108    H    0.21181   0.14410   0.40218   1.000
    H109    H    0.09681   0.09644   0.38680   1.000
    H110    H    0.14436   0.21144   0.40219   1.000
    H111    H    0.25836   0.32583   0.55325   1.000
    H112    H    0.29181   0.29197   0.64581   1.000
    H113    H    0.32598   0.25819   0.55335   1.000
    H114    H    0.70701   0.96965   0.60340   1.000
    H115    H    0.76257   0.07428   0.59832   1.000
    H116    H    0.40178   0.92564   0.23742   1.000
    H117    H    0.39630   0.03030   0.29302   1.000
    H118    H    0.77357   0.21640   0.70585   1.000
    H119    H    0.65582   0.18720   0.65602   1.000
    H120    H    0.70540   0.21644   0.77381   1.000
    H121    H    0.76614   0.01245   0.76614   1.000
    H122    H    0.83822   0.11633   0.77080   1.000
    H123    H    0.77082   0.11654   0.83831   1.000
    C124    C    0.44432   0.89065   0.79510   1.000
    C125    C    0.47382   0.81445   0.81447   1.000
    C126    C    0.55571   0.20488   0.10935   1.000
    C127    C    0.57637   0.84209   0.84218   1.000
    C128    C    0.42762   0.72938   0.72940   1.000
    C129    C    0.39465   0.29861   0.96484   1.000
    C130    C    0.30325   0.30338   0.91616   1.000
    C131    C    0.70147   0.60515   0.03509   1.000
    C132    C    0.29147   0.29146   0.81813   1.000
    C133    C    0.22760   0.22786   0.91815   1.000
    C134    C    0.79530   0.44442   0.89085   1.000
    C135    C    0.81470   0.47391   0.81473   1.000
    C136    C    0.10910   0.55565   0.20475   1.000
    C137    C    0.84234   0.57650   0.84256   1.000
    C138    C    0.72974   0.42766   0.72970   1.000
    C139    C    0.96474   0.39434   0.29836   1.000
    C140    C    0.91605   0.30299   0.30308   1.000
    C141    C    0.03523   0.70169   0.60552   1.000
    C142    C    0.81809   0.29138   0.29142   1.000
    C143    C    0.91798   0.22718   0.22730   1.000
    C144    C    0.89095   0.79534   0.44442   1.000
    C145    C    0.81475   0.81488   0.47391   1.000
    C146    C    0.20469   0.10904   0.55500   1.000
    C147    C    0.84241   0.84273   0.57650   1.000
    C148    C    0.72979   0.72989   0.42763   1.000
    C149    C    0.29852   0.96491   0.39469   1.000
    C150    C    0.30328   0.91617   0.30320   1.000
    C151    C    0.60535   0.03519   0.70149   1.000
    C152    C    0.29157   0.81815   0.29130   1.000
    C153    C    0.22763   0.91815   0.22758   1.000
    C154    C    0.55570   0.10941   0.20487   1.000
    C155    C    0.52621   0.18561   0.18550   1.000
    C156    C    0.44431   0.79517   0.89065   1.000
    C157    C    0.42365   0.15797   0.15782   1.000
    C158    C    0.57240   0.27067   0.27060   1.000
    C159    C    0.60537   0.70145   0.03517   1.000
    C160    C    0.69677   0.69667   0.08384   1.000
    C161    C    0.29856   0.39491   0.96492   1.000
    C162    C    0.70855   0.70859   0.18188   1.000
    C163    C    0.77242   0.77220   0.08185   1.000
    C164    C    0.27028   0.57240   0.27031   1.000
    C165    C    0.03528   0.60572   0.70160   1.000
    C166    C    0.08396   0.69706   0.69692   1.000
    C167    C    0.96479   0.29836   0.39448   1.000
    C168    C    0.18193   0.70867   0.70857   1.000
    C169    C    0.08205   0.77287   0.77266   1.000
    C170    C    0.10907   0.20471   0.55557   1.000
    C171    C    0.18527   0.18517   0.52609   1.000
    C172    C    0.79533   0.89102   0.44441   1.000
    C173    C    0.15761   0.15732   0.42349   1.000
    C174    C    0.27023   0.27016   0.57236   1.000
    C175    C    0.70150   0.03515   0.60531   1.000
    C176    C    0.69674   0.08388   0.69680   1.000
    C177    C    0.39466   0.96486   0.29851   1.000
    C178    C    0.70845   0.18190   0.70870   1.000
    C179    C    0.77239   0.08190   0.77242   1.000
loop_
    _geom_bond_atom_site_label_1
    _geom_bond_atom_site_label_2
    _geom_bond_distance
    _geom_bond_site_symmetry_2
    _ccdc_geom_bond_type
    H77    C163      1.10122      .   S
    H10    C129      1.10622  1_554   S
    H73    C161      1.10654  1_554   S
    C131   H12       1.10090      .   S
    C131   C160      1.54812      .   S
    C131   H13       1.10663  1_554   S
    C159   H71       1.10095      .   S
    C159   C160      1.54826      .   S
    C159   H70       1.10653  1_554   S
    C163   C160      1.53297      .   S
    C163   H78       1.09955      .   S
    C163   H79       1.09953      .   S
    C160   C162      1.53473      .   S
    H80    C88       1.10033      .   S
    H3     C126      1.10038      .   S
    H85    C91       1.09925      .   S
    H65    C157      1.09928      .   S
    C88    H81       1.10524      .   S
    C88    C89       1.54801      .   S
    C126   H2        1.10513      .   S
    C126   C155      1.54744      .   S
    H86    C91       1.09987      .   S
    H64    C157      1.09989      .   S
    C91    C89       1.53825      .   S
    C91    H84       1.09994      .   S
    C157   C155      1.53831      .   S
    C157   H66       1.09984      .   S
    H38    C143      1.09887      .   S
    H59    C153      1.09947      .   S
    C162   H75       1.09865      .   S
    C162   H76       1.09864      .   S
    C162   H74       1.09865      .   S
    C89    C136      1.54783      .   S
    C89    C164      1.53234      .   S
    C155   C154      1.54815      .   S
    C155   C158      1.53261      .   S
    C136   H22       1.10512      .   S
    C136   H23       1.09944      .   S
    C154   H61       1.10514      .   S
    C154   H60       1.10028      .   S
    H56    C152      1.10136      .   S
    H34    C142      1.09863      .   S
    C143   H39       1.09986      .   S
    C143   H37       1.10127      .   S
    C143   C140      1.53355      .   S
    C153   H58       1.09902      .   S
    C153   H57       1.10124      .   S
    C153   C150      1.53305      .   S
    H31    C139      1.10103      .   S
    H116   C177      1.10087      .   S
    H87    C164      1.09975      .   S
    H69    C158      1.09970      .   S
    C164   H92       1.09734      .   S
    C164   H93       1.09968      .   S
    C158   H68       1.09733      .   S
    C158   H67       1.09981      .   S
    C152   H54       1.09875      .   S
    C152   C150      1.53458      .   S
    C152   H55       1.09868      .   S
    C142   H36       1.09874      .   S
    C142   C140      1.53460      .   S
    C142   H35       1.09870      .   S
    H30    C139      1.10568  1_455   S
    H117   C177      1.10594  1_545   S
    C139   C140      1.54828      .   S
    C177   C150      1.54825      .   S
    C140   C167      1.54818      .   S
    C150   C149      1.54823      .   S
    H48    C148      1.09730      .   S
    H106   C172      1.10536      .   S
    H41    C144      1.10507      .   S
    H109   C173      1.09925      .   S
    C167   H97       1.10564  1_655   S
    C167   H96       1.10089      .   S
    C149   H50       1.10599  1_565   S
    C149   H51       1.10088      .   S
    H108   C173      1.09987      .   S
    H110   C173      1.09989      .   S
    C173   C171      1.53830      .   S
    C148   H49       1.09976      .   S
    C148   H47       1.09974      .   S
    C148   C145      1.53231      .   S
    C172   H107      1.10034      .   S
    C172   C145      1.54796      .   S
    C144   H40       1.10041      .   S
    C144   C145      1.54791      .   S
    C145   C147      1.53814      .   S
    C171   C146      1.54324      .   S
    C171   C170      1.54785      .   S
    C171   C174      1.53231      .   S
    H43    C146      1.09564      .   S
    H104   C170      1.10039      .   S
    H111   C174      1.09974      .   S
    H113   C174      1.09972      .   S
    C146   H42       1.11398      .   S
    C170   H105      1.10521      .   S
    C174   H112      1.09730      .   S
    C147   H46       1.09990      .   S
    C147   H44       1.09994      .   S
    C147   H45       1.09927      .   S
    H115   C175      1.10090      .   S
    H32    C141      1.10095      .   S
    H114   C175      1.10569  1_565   S
    H33    C141      1.10563  1_655   S
    C175   C176      1.54822      .   S
    C141   C166      1.54819      .   S
    H99    C168      1.09868      .   S
    H119   C178      1.09861      .   S
    H7     C128      1.09979      .   S
    H29    C138      1.09981      .   S
    C176   C151      1.54828      .   S
    C176   C178      1.53460      .   S
    C176   C179      1.53309      .   S
    C166   C165      1.54795      .   S
    C166   C168      1.53461      .   S
    C166   C169      1.53313      .   S
    C151   H53       1.10593  1_545   S
    C151   H52       1.10085      .   S
    C165   H94       1.10591  1_455   S
    C165   H95       1.10158      .   S
    H100   C168      1.09864      .   S
    H118   C178      1.09869      .   S
    H8     C128      1.09733      .   S
    H28    C138      1.09732      .   S
    C168   H98       1.09864      .   S
    C178   H120      1.09867      .   S
    C128   H9        1.09971      .   S
    C128   C125      1.53235      .   S
    C138   H27       1.09974      .   S
    C138   C135      1.53232      .   S
    H0     C124      1.09981      .   S
    H83    C90       1.10037      .   S
    H1     C124      1.10511      .   S
    H82    C90       1.10516      .   S
    H121   C179      1.10121      .   S
    H101   C169      1.10124      .   S
    H122   C179      1.09972      .   S
    H103   C169      1.09956      .   S
    C179   H123      1.09947      .   S
    C169   H102      1.09945      .   S
    H14    C132      1.09869      .   S
    H16    C132      1.09900      .   S
    H6     C127      1.09998      .   S
    H24    C137      1.09992      .   S
    C124   C125      1.54816      .   S
    C90    C135      1.54786      .   S
    H15    C132      1.09870      .   S
    C125   C127      1.53827      .   S
    C125   C156      1.54791      .   S
    C135   C137      1.53828      .   S
    C135   C134      1.54790      .   S
    C132   C130      1.53455      .   S
    C127   H4        1.09989      .   S
    C127   H5        1.09928      .   S
    C137   H26       1.09988      .   S
    C137   H25       1.09926      .   S
    H62    C156      1.10513      .   S
    H21    C134      1.10513      .   S
    H19    C133      1.09952      .   S
    H18    C133      1.09950      .   S
    C156   H63       1.10037      .   S
    C134   H20       1.10033      .   S
    C130   C133      1.53297      .   S
    C130   C129      1.54829      .   S
    C130   C161      1.54818      .   S
    C133   H17       1.10122      .   S
    H11    C129      1.10095      .   S
    H72    C161      1.10098      .   S
