# CIF file generated by openbabel 2.4.90, see http://openbabel.sf.net
data_I
_chemical_name_common ''
_cell_length_a 16.563
_cell_length_b 16.569
_cell_length_c 16.571
_cell_angle_alpha 105.564
_cell_angle_beta 105.413
_cell_angle_gamma 105.367
_space_group_name_H-M_alt 'P 1'
_space_group_name_Hall 'P 1'
loop_
    _symmetry_equiv_pos_as_xyz
    x,y,z
loop_
    _atom_site_label
    _atom_site_type_symbol
    _atom_site_fract_x
    _atom_site_fract_y
    _atom_site_fract_z
    _atom_site_occupancy
    Lv0     Lv   0.19794   0.19784   0.52661   1.000
    Lv1     Lv   0.52676   0.19829   0.19821   1.000
    Lv2     Lv   0.90849   0.28865   0.28874   1.000
    Lv3     Lv   0.19799   0.52670   0.19794   1.000
    Lv4     Lv   0.47327   0.80176   0.80178   1.000
    Lv5     Lv   0.09152   0.71140   0.71125   1.000
    Lv6     Lv   0.80203   0.47335   0.80205   1.000
    Lv7     Lv   0.71110   0.71099   0.09139   1.000
    Lv8     Lv   0.80207   0.80221   0.47334   1.000
    Lv9     Lv   0.71106   0.09143   0.71113   1.000
    Lv10    Lv   0.28895   0.90862   0.28885   1.000
    Lv11    Lv   0.28892   0.28906   0.90861   1.000
