# CIF file generated by openbabel 2.4.90, see http://openbabel.sf.net
data_I
_chemical_name_common ''
_cell_length_a 16.563
_cell_length_b 16.569
_cell_length_c 16.571
_cell_angle_alpha 105.564
_cell_angle_beta 105.413
_cell_angle_gamma 105.367
_space_group_name_H-M_alt 'P 1'
_space_group_name_Hall 'P 1'
loop_
    _symmetry_equiv_pos_as_xyz
    x,y,z
loop_
    _atom_site_label
    _atom_site_type_symbol
    _atom_site_fract_x
    _atom_site_fract_y
    _atom_site_fract_z
    _atom_site_occupancy
    Zr0     Zr   0.56365   0.25050   0.93818   1.000
    Zr1     Zr   0.74939   0.43629   0.06201   1.000
    Zr2     Zr   0.93800   0.56346   0.25077   1.000
    Zr3     Zr   0.06199   0.74917   0.43644   1.000
    Zr4     Zr   0.25064   0.93789   0.56358   1.000
    Zr5     Zr   0.43628   0.06174   0.74942   1.000
    Zr6     Zr   0.43637   0.74957   0.06183   1.000
    Zr7     Zr   0.25063   0.56376   0.93801   1.000
    Zr8     Zr   0.06202   0.43659   0.74923   1.000
    Zr9     Zr   0.93802   0.25088   0.56356   1.000
    Zr10    Zr   0.74939   0.06221   0.43645   1.000
    Zr11    Zr   0.56373   0.93832   0.25059   1.000
    Zr12    Zr   0.73588   0.26401   0.99991   1.000
    Zr13    Zr   0.49989   0.23373   0.76617   1.000
    Zr14    Zr   0.99993   0.73567   0.26422   1.000
    Zr15    Zr   0.76605   0.50008   0.23408   1.000
    Zr16    Zr   0.26411   0.00000   0.73587   1.000
    Zr17    Zr   0.23397   0.76582   0.49979   1.000
    Zr18    Zr   0.26415   0.73605   0.00010   1.000
    Zr19    Zr   0.50015   0.76634   0.23384   1.000
    Zr20    Zr   0.00008   0.26438   0.73577   1.000
    Zr21    Zr   0.23395   0.49997   0.76593   1.000
    Zr22    Zr   0.73592   0.00006   0.26412   1.000
    Zr23    Zr   0.76605   0.23425   0.50022   1.000
    O24     O    0.25739   0.64991   0.96906   1.000
    O25     O    0.74263   0.35015   0.03096   1.000
    O26     O    0.53194   0.85233   0.24222   1.000
    O27     O    0.85203   0.53177   0.24243   1.000
    O28     O    0.64982   0.96919   0.25736   1.000
    O29     O    0.03096   0.74242   0.35033   1.000
    O30     O    0.14798   0.75750   0.46812   1.000
    O31     O    0.75772   0.14823   0.46834   1.000
    O32     O    0.96905   0.25763   0.64967   1.000
    O33     O    0.35020   0.03087   0.74265   1.000
    O34     O    0.14799   0.46828   0.75758   1.000
    O35     O    0.53177   0.24211   0.85218   1.000
    N36     N    0.19794   0.19784   0.52661   1.000
    N37     N    0.52676   0.19829   0.19821   1.000
    N38     N    0.90849   0.28865   0.28874   1.000
    N39     N    0.19799   0.52670   0.19794   1.000
    N40     N    0.47327   0.80176   0.80178   1.000
    N41     N    0.09152   0.71140   0.71125   1.000
    N42     N    0.80203   0.47335   0.80205   1.000
    N43     N    0.71110   0.71099   0.09139   1.000
    N44     N    0.80207   0.80221   0.47334   1.000
    N45     N    0.71106   0.09143   0.71113   1.000
    N46     N    0.28895   0.90862   0.28885   1.000
    N47     N    0.28892   0.28906   0.90861   1.000
    C48     C    0.00001   0.50002   0.50000   1.000
    O49     O    0.98168   0.52916   0.40552   1.000
    O50     O    0.97055   0.43066   0.40688   1.000
    O51     O    0.01833   0.59447   0.47081   1.000
    O52     O    0.01834   0.47089   0.59448   1.000
    O53     O    0.97056   0.40688   0.43070   1.000
    O54     O    0.02946   0.59317   0.56930   1.000
    O55     O    0.02946   0.56939   0.59311   1.000
    O56     O    0.98168   0.40558   0.52919   1.000
    C57     C    0.50001   0.00003   0.00000   1.000
    O58     O    0.51932   0.97139   0.09492   1.000
    O59     O    0.48322   0.93331   0.90956   1.000
    O60     O    0.51930   0.09490   0.97132   1.000
    O61     O    0.51681   0.09048   0.06670   1.000
    O62     O    0.48070   0.02866   0.90509   1.000
    O63     O    0.48322   0.90958   0.93330   1.000
    O64     O    0.48073   0.90515   0.02868   1.000
    O65     O    0.51681   0.06675   0.09044   1.000
    C66     C    0.50001   0.50003   0.99999   1.000
    O67     O    0.59305   0.56918   0.02939   1.000
    O68     O    0.43078   0.40702   0.97060   1.000
    O69     O    0.56924   0.59304   0.02940   1.000
    O70     O    0.47078   0.59461   0.01826   1.000
    O71     O    0.59453   0.47074   0.01832   1.000
    O72     O    0.40697   0.43088   0.97060   1.000
    O73     O    0.52925   0.40545   0.98174   1.000
    O74     O    0.40549   0.52932   0.98165   1.000
    C75     C    0.00001   0.00003   0.50000   1.000
    O76     O    0.09494   0.97122   0.51927   1.000
    O77     O    0.90967   0.93350   0.48325   1.000
    O78     O    0.93344   0.90972   0.48326   1.000
    O79     O    0.06658   0.09034   0.51673   1.000
    O80     O    0.09034   0.06656   0.51666   1.000
    O81     O    0.02876   0.90503   0.48076   1.000
    O82     O    0.97126   0.09503   0.51924   1.000
    O83     O    0.90508   0.02884   0.48073   1.000
    C84     C    0.00001   0.50003   0.00000   1.000
    O85     O    0.97125   0.51922   0.09497   1.000
    O86     O    0.90507   0.48069   0.02876   1.000
    O87     O    0.09036   0.51679   0.06659   1.000
    O88     O    0.09494   0.51936   0.97125   1.000
    O89     O    0.06660   0.51678   0.09035   1.000
    O90     O    0.93342   0.48327   0.90965   1.000
    O91     O    0.90966   0.48326   0.93341   1.000
    O92     O    0.02876   0.48083   0.90503   1.000
    C93     C    0.50001   0.00003   0.49999   1.000
    O94     O    0.43079   0.97063   0.40693   1.000
    O95     O    0.59305   0.02944   0.56923   1.000
    O96     O    0.52928   0.98183   0.40547   1.000
    O97     O    0.56922   0.02943   0.59305   1.000
    O98     O    0.40697   0.97062   0.43076   1.000
    O99     O    0.40548   0.98163   0.52919   1.000
    O100    O    0.47074   0.01823   0.59452   1.000
    O101    O    0.59455   0.01844   0.47079   1.000
loop_
    _geom_bond_atom_site_label_1
    _geom_bond_atom_site_label_2
    _geom_bond_distance
    _geom_bond_site_symmetry_2
    _ccdc_geom_bond_type
    Zr18   O24       1.34356  1_554   S
    Zr7    O24       1.34356      .   S
    Zr1    O25       1.34350      .   S
    Zr12   O25       1.34350  1_556   S
    Zr19   O26       1.33560      .   S
    Zr11   O26       1.33560      .   S
    Zr15   O27       1.33516      .   S
    Zr2    O27       1.33516      .   S
    Zr11   O28       1.34360      .   S
    Zr22   O28       1.34360  1_545   S
    Zr14   O29       1.34418  1_655   S
    Zr3    O29       1.34418      .   S
    Zr3    O30       1.33514      .   S
    Zr17   O30       1.33514      .   S
    Zr10   O31       1.33508      .   S
    Zr23   O31       1.33508      .   S
    Zr9    O32       1.34411      .   S
    Zr20   O32       1.34411  1_455   S
    Zr16   O33       1.34346      .   S
    Zr5    O33       1.34346      .   S
    Zr8    O34       1.33506      .   S
    Zr21   O34       1.33506      .   S
    Zr13   O35       1.33573      .   S
    Zr0    O35       1.33573      .   S
    C48    O49       1.73413  1_455   S
    Zr2    O49       2.72690      .   S
    C48    O50       1.51360  1_455   S
    N38    O50       2.36691      .   S
    C48    O51       1.73421      .   S
    Zr3    O51       2.72715      .   S
    C48    O52       1.73412      .   S
    Zr8    O52       2.72685      .   S
    C48    O53       1.51359  1_455   S
    N38    O53       2.36691      .   S
    C48    O54       1.51357      .   S
    N41    O54       2.36681      .   S
    C48    O55       1.51351      .   S
    N41    O55       2.36687      .   S
    C48    O56       1.73421  1_455   S
    Zr9    O56       2.72714      .   S
    C57    O58       1.73633  1_545   S
    Zr11   O58       2.73125      .   S
    C57    O59       1.50733  1_544   S
    N40    O59       2.35192      .   S
    C57    O60       1.73621  1_554   S
    Zr0    O60       2.73094      .   S
    C57    O61       1.50721      .   S
    N37    O61       2.35198      .   S
    C57    O62       1.73629  1_554   S
    Zr5    O62       2.73113      .   S
    C57    O63       1.50722  1_544   S
    N40    O63       2.35200      .   S
    C57    O64       1.73621  1_545   S
    Zr6    O64       2.73093      .   S
    C57    O65       1.50728      .   S
    N37    O65       2.35193      .   S
    C66    O67       1.51347  1_556   S
    N43    O67       2.36671      .   S
    C66    O68       1.51348      .   S
    N47    O68       2.36677      .   S
    C66    O69       1.51346  1_556   S
    N43    O69       2.36675      .   S
    C66    O70       1.73418  1_556   S
    Zr6    O70       2.72716      .   S
    C66    O71       1.73431  1_556   S
    Zr1    O71       2.72745      .   S
    C66    O72       1.51349      .   S
    N47    O72       2.36673      .   S
    C66    O73       1.73414      .   S
    Zr0    O73       2.72706      .   S
    C66    O74       1.73432      .   S
    Zr7    O74       2.72741      .   S
    C75    O76       1.73630  1_545   S
    Zr4    O76       2.73147      .   S
    C75    O77       1.50725  1_445   S
    N44    O77       2.35226      .   S
    C75    O78       1.50730  1_445   S
    N44    O78       2.35219      .   S
    C75    O79       1.50735      .   S
    N36    O79       2.35240      .   S
    C75    O80       1.50765      .   S
    N36    O80       2.35199      .   S
    C75    O81       1.73630  1_545   S
    Zr3    O81       2.73158      .   S
    C75    O82       1.73629  1_455   S
    Zr9    O82       2.73155      .   S
    C75    O83       1.73634  1_455   S
    Zr10   O83       2.73154      .   S
    C84    O85       1.73629  1_455   S
    Zr2    O85       2.73133      .   S
    C84    O86       1.73642  1_455   S
    Zr1    O86       2.73159      .   S
    C84    O87       1.50724      .   S
    N39    O87       2.35216      .   S
    C84    O88       1.73641  1_554   S
    Zr7    O88       2.73155      .   S
    C84    O89       1.50732      .   S
    N39    O89       2.35207      .   S
    C84    O90       1.50738  1_454   S
    N42    O90       2.35217      .   S
    C84    O91       1.50728  1_454   S
    N42    O91       2.35230      .   S
    C84    O92       1.73632  1_554   S
    Zr8    O92       2.73144      .   S
    C93    O94       1.51354  1_545   S
    N46    O94       2.36687      .   S
    C93    O95       1.51355      .   S
    N45    O95       2.36676      .   S
    C93    O96       1.73403  1_545   S
    Zr11   O96       2.72692      .   S
    C93    O97       1.51356      .   S
    N45    O97       2.36679      .   S
    C93    O98       1.51353  1_545   S
    N46    O98       2.36689      .   S
    C93    O99       1.73422  1_545   S
    Zr4    O99       2.72767      .   S
    C93    O100      1.73419      .   S
    Zr5    O100      2.72717      .   S
    C93    O101      1.73431      .   S
    Zr10   O101      2.72735      .   S
