# CIF file generated by openbabel 2.4.90, see http://openbabel.sf.net
data_I
_chemical_name_common ''
_cell_length_a 16.563
_cell_length_b 16.569
_cell_length_c 16.571
_cell_angle_alpha 105.564
_cell_angle_beta 105.413
_cell_angle_gamma 105.367
_space_group_name_H-M_alt 'P 1'
_space_group_name_Hall 'P 1'
loop_
    _symmetry_equiv_pos_as_xyz
    x,y,z
loop_
    _atom_site_label
    _atom_site_type_symbol
    _atom_site_fract_x
    _atom_site_fract_y
    _atom_site_fract_z
    _atom_site_occupancy
    Zr0     Zr   0.56365   0.25050   0.93818   1.000
    Zr1     Zr   0.74939   0.43629   0.06201   1.000
    Zr2     Zr   0.93800   0.56346   0.25077   1.000
    Zr3     Zr   0.06199   0.74917   0.43644   1.000
    Zr4     Zr   0.25064   0.93789   0.56358   1.000
    Zr5     Zr   0.43628   0.06174   0.74942   1.000
    Zr6     Zr   0.43637   0.74957   0.06183   1.000
    Zr7     Zr   0.25063   0.56376   0.93801   1.000
    Zr8     Zr   0.06202   0.43659   0.74923   1.000
    Zr9     Zr   0.93802   0.25088   0.56356   1.000
    Zr10    Zr   0.74939   0.06221   0.43645   1.000
    Zr11    Zr   0.56373   0.93832   0.25059   1.000
    Zr12    Zr   0.52519   0.12222   0.02783   1.000
    Zr13    Zr   0.51252   0.03824   0.03823   1.000
    Zr14    Zr   0.47486   0.97219   0.87778   1.000
    Zr15    Zr   0.62072   0.52618   0.01730   1.000
    Zr16    Zr   0.53728   0.53726   0.00754   1.000
    Zr17    Zr   0.47372   0.37932   0.98274   1.000
    Zr18    Zr   0.02766   0.52508   0.12218   1.000
    Zr19    Zr   0.03816   0.51250   0.03818   1.000
    Zr20    Zr   0.87785   0.47489   0.97230   1.000
    Zr21    Zr   0.01734   0.62080   0.52638   1.000
    Zr22    Zr   0.00756   0.53736   0.53731   1.000
    Zr23    Zr   0.98267   0.47354   0.37921   1.000
    Zr24    Zr   0.12214   0.02763   0.52509   1.000
    Zr25    Zr   0.03815   0.03817   0.51246   1.000
    Zr26    Zr   0.97236   0.87787   0.47495   1.000
    Zr27    Zr   0.52628   0.01726   0.62071   1.000
    Zr28    Zr   0.53728   0.00755   0.53726   1.000
    Zr29    Zr   0.37926   0.98268   0.47373   1.000
    Zr30    Zr   0.47485   0.87783   0.97217   1.000
    Zr31    Zr   0.48750   0.96181   0.96177   1.000
    Zr32    Zr   0.52517   0.02787   0.12222   1.000
    Zr33    Zr   0.37930   0.47387   0.98269   1.000
    Zr34    Zr   0.46274   0.46280   0.99247   1.000
    Zr35    Zr   0.52630   0.62074   0.01727   1.000
    Zr36    Zr   0.97235   0.47497   0.87783   1.000
    Zr37    Zr   0.96185   0.48755   0.96182   1.000
    Zr38    Zr   0.12216   0.52518   0.02771   1.000
    Zr39    Zr   0.98268   0.37925   0.47362   1.000
    Zr40    Zr   0.99246   0.46269   0.46269   1.000
    Zr41    Zr   0.01735   0.52651   0.62079   1.000
    Zr42    Zr   0.87787   0.97242   0.47489   1.000
    Zr43    Zr   0.96186   0.96189   0.48754   1.000
    Zr44    Zr   0.02766   0.12218   0.52506   1.000
    Zr45    Zr   0.47374   0.98281   0.37929   1.000
    Zr46    Zr   0.46273   0.99250   0.46274   1.000
    Zr47    Zr   0.62076   0.01739   0.52628   1.000
    Zr48    Zr   0.73588   0.26401   0.99991   1.000
    Zr49    Zr   0.49989   0.23373   0.76617   1.000
    Zr50    Zr   0.99993   0.73567   0.26422   1.000
    Zr51    Zr   0.76605   0.50008   0.23408   1.000
    Zr52    Zr   0.26411   0.00000   0.73587   1.000
    Zr53    Zr   0.23397   0.76582   0.49979   1.000
    Zr54    Zr   0.26415   0.73605   0.00010   1.000
    Zr55    Zr   0.50015   0.76634   0.23384   1.000
    Zr56    Zr   0.00008   0.26438   0.73577   1.000
    Zr57    Zr   0.23395   0.49997   0.76593   1.000
    Zr58    Zr   0.73592   0.00006   0.26412   1.000
    Zr59    Zr   0.76605   0.23425   0.50022   1.000
    Zr60    Zr   0.51352   0.12906   0.94711   1.000
    Zr61    Zr   0.48650   0.05286   0.87092   1.000
    Zr62    Zr   0.62872   0.44660   0.01130   1.000
    Zr63    Zr   0.55331   0.37125   0.98880   1.000
    Zr64    Zr   0.94699   0.51336   0.12911   1.000
    Zr65    Zr   0.87089   0.48642   0.05301   1.000
    Zr66    Zr   0.01133   0.62866   0.44679   1.000
    Zr67    Zr   0.98870   0.55312   0.37129   1.000
    Zr68    Zr   0.12910   0.94694   0.51350   1.000
    Zr69    Zr   0.05302   0.87088   0.48659   1.000
    Zr70    Zr   0.44666   0.01114   0.62869   1.000
    Zr71    Zr   0.37124   0.98857   0.55320   1.000
    Zr72    Zr   0.48651   0.87100   0.05289   1.000
    Zr73    Zr   0.51353   0.94720   0.12908   1.000
    Zr74    Zr   0.37130   0.55346   0.98862   1.000
    Zr75    Zr   0.44671   0.62881   0.01121   1.000
    Zr76    Zr   0.05303   0.48669   0.87090   1.000
    Zr77    Zr   0.12912   0.51363   0.94700   1.000
    Zr78    Zr   0.98868   0.37139   0.55321   1.000
    Zr79    Zr   0.01131   0.44693   0.62871   1.000
    Zr80    Zr   0.87092   0.05312   0.48649   1.000
    Zr81    Zr   0.94700   0.12917   0.51340   1.000
    Zr82    Zr   0.55336   0.98892   0.37131   1.000
    Zr83    Zr   0.62878   0.01149   0.44672   1.000
    O84     O    0.25739   0.64991   0.96906   1.000
    O85     O    0.53179   0.57900   0.01241   1.000
    O86     O    0.57900   0.53172   0.01242   1.000
    O87     O    0.50001   0.50003   0.00001   1.000
    O88     O    0.48651   0.62477   0.01424   1.000
    O89     O    0.44154   0.68919   0.03652   1.000
    O90     O    0.40901   0.59113   0.99992   1.000
    O91     O    0.62472   0.48639   0.01430   1.000
    O92     O    0.68905   0.44144   0.03666   1.000
    O93     O    0.59102   0.40892   0.00005   1.000
    O94     O    0.08016   0.51884   0.03295   1.000
    O95     O    0.12564   0.51941   0.98736   1.000
    O96     O    0.51886   0.08023   0.03303   1.000
    O97     O    0.51935   0.12564   0.98747   1.000
    O98     O    0.03291   0.51879   0.08018   1.000
    O99     O    0.00001   0.50002   0.00000   1.000
    O100    O    0.51885   0.03306   0.08023   1.000
    O101    O    0.50001   0.00003   0.00000   1.000
    O102    O    0.46144   0.81028   0.05736   1.000
    O103    O    0.50002   0.90910   0.09099   1.000
    O104    O    0.48068   0.87442   0.01253   1.000
    O105    O    0.81014   0.46135   0.05751   1.000
    O106    O    0.90894   0.49989   0.09106   1.000
    O107    O    0.87437   0.48065   0.01266   1.000
    O108    O    0.74263   0.35015   0.03096   1.000
    O109    O    0.98733   0.51922   0.12565   1.000
    O110    O    0.51935   0.98754   0.12565   1.000
    O111    O    0.53863   0.94276   0.18984   1.000
    O112    O    0.94249   0.53841   0.18994   1.000
    O113    O    0.53194   0.85233   0.24222   1.000
    O114    O    0.85203   0.53177   0.24243   1.000
    O115    O    0.64982   0.96919   0.25736   1.000
    O116    O    0.55854   0.96362   0.31095   1.000
    O117    O    0.96335   0.55829   0.31103   1.000
    O118    O    0.03096   0.74242   0.35033   1.000
    O119    O    0.98568   0.51333   0.37525   1.000
    O120    O    0.00002   0.59089   0.40904   1.000
    O121    O    0.51355   0.98587   0.37530   1.000
    O122    O    0.59107   0.00021   0.40902   1.000
    O123    O    0.98756   0.46811   0.42095   1.000
    O124    O    0.46823   0.98765   0.42102   1.000
    O125    O    0.03666   0.68892   0.44162   1.000
    O126    O    0.05751   0.81002   0.46152   1.000
    O127    O    0.14798   0.75750   0.46812   1.000
    O128    O    0.68908   0.03685   0.44159   1.000
    O129    O    0.81015   0.05766   0.46147   1.000
    O130    O    0.75772   0.14823   0.46834   1.000
    O131    O    0.62477   0.01444   0.48650   1.000
    O132    O    0.01433   0.62473   0.48659   1.000
    O133    O    0.98757   0.42097   0.46816   1.000
    O134    O    0.00001   0.50003   0.50000   1.000
    O135    O    0.42100   0.98759   0.46824   1.000
    O136    O    0.50001   0.00003   0.50000   1.000
    O137    O    0.98568   0.37532   0.51342   1.000
    O138    O    0.37525   0.98563   0.51347   1.000
    O139    O    0.87439   0.01277   0.48069   1.000
    O140    O    0.91986   0.96715   0.48122   1.000
    O141    O    0.01269   0.87438   0.48077   1.000
    O142    O    0.96711   0.91988   0.48125   1.000
    O143    O    0.90896   0.09115   0.49995   1.000
    O144    O    0.09106   0.90891   0.50005   1.000
    O145    O    0.00001   0.00003   0.50000   1.000
    O146    O    0.03291   0.08018   0.51876   1.000
    O147    O    0.08015   0.03290   0.51878   1.000
    O148    O    0.98733   0.12568   0.51923   1.000
    O149    O    0.94251   0.19003   0.53848   1.000
    O150    O    0.12562   0.98728   0.51929   1.000
    O151    O    0.18987   0.94241   0.53854   1.000
    O152    O    0.57902   0.01247   0.53177   1.000
    O153    O    0.01245   0.57908   0.53185   1.000
    O154    O    0.53178   0.01240   0.57898   1.000
    O155    O    0.01245   0.53194   0.57905   1.000
    O156    O    0.31094   0.96323   0.55839   1.000
    O157    O    0.40895   0.99986   0.59095   1.000
    O158    O    0.96335   0.31113   0.55839   1.000
    O159    O    1.00000   0.40916   0.59096   1.000
    O160    O    0.96905   0.25763   0.64967   1.000
    O161    O    0.48647   0.01420   0.62470   1.000
    O162    O    0.01433   0.48672   0.62475   1.000
    O163    O    0.44147   0.03644   0.68906   1.000
    O164    O    0.03666   0.44176   0.68897   1.000
    O165    O    0.35020   0.03087   0.74265   1.000
    O166    O    0.14799   0.46828   0.75758   1.000
    O167    O    0.05752   0.46164   0.81007   1.000
    O168    O    0.46139   0.05730   0.81017   1.000
    O169    O    0.53177   0.24211   0.85218   1.000
    O170    O    0.01269   0.48083   0.87437   1.000
    O171    O    0.09107   0.50016   0.90895   1.000
    O172    O    0.48068   0.01252   0.87435   1.000
    O173    O    0.50001   0.09096   0.90902   1.000
    O174    O    0.48118   0.96700   0.91978   1.000
    O175    O    0.96710   0.48126   0.91983   1.000
    O176    O    0.18988   0.53870   0.94251   1.000
    O177    O    0.31097   0.55861   0.96332   1.000
    O178    O    0.53858   0.18978   0.94265   1.000
    O179    O    0.55848   0.31087   0.96349   1.000
    O180    O    0.48117   0.91982   0.96697   1.000
    O181    O    0.91985   0.48122   0.96706   1.000
    O182    O    0.37530   0.51367   0.98566   1.000
    O183    O    0.42102   0.46834   0.98758   1.000
    O184    O    0.51352   0.37528   0.98577   1.000
    O185    O    0.46823   0.42106   0.98761   1.000
    N186    N    0.19794   0.19784   0.52661   1.000
    O187    O    0.13315   0.18065   0.53346   1.000
    O188    O    0.18068   0.13309   0.53333   1.000
    N189    N    0.52676   0.19829   0.19821   1.000
    O190    O    0.53360   0.18092   0.13340   1.000
    O191    O    0.53360   0.13347   0.18088   1.000
    N192    N    0.90849   0.28865   0.28874   1.000
    O193    O    0.94110   0.36129   0.31376   1.000
    O194    O    0.94111   0.31373   0.36139   1.000
    N195    N    0.19799   0.52670   0.19794   1.000
    O196    O    0.13318   0.53353   0.18070   1.000
    O197    O    0.18071   0.53355   0.13319   1.000
    N198    N    0.47327   0.80176   0.80178   1.000
    O199    O    0.46643   0.86659   0.81911   1.000
    O200    O    0.46642   0.81913   0.86660   1.000
    N201    N    0.09152   0.71140   0.71125   1.000
    O202    O    0.05890   0.68632   0.63860   1.000
    O203    O    0.05892   0.63876   0.68622   1.000
    N204    N    0.80203   0.47335   0.80205   1.000
    O205    O    0.81930   0.46650   0.86681   1.000
    O206    O    0.86683   0.46652   0.81929   1.000
    N207    N    0.71110   0.71099   0.09139   1.000
    O208    O    0.63847   0.68604   0.05880   1.000
    O209    O    0.68610   0.63833   0.05879   1.000
    N210    N    0.80207   0.80221   0.47334   1.000
    O211    O    0.81934   0.86696   0.46650   1.000
    O212    O    0.86686   0.81941   0.46651   1.000
    N213    N    0.71106   0.09143   0.71113   1.000
    O214    O    0.68610   0.05885   0.63846   1.000
    O215    O    0.63844   0.05883   0.68611   1.000
    N216    N    0.28895   0.90862   0.28885   1.000
    O217    O    0.31392   0.94121   0.36153   1.000
    O218    O    0.36158   0.94123   0.31387   1.000
    N219    N    0.28892   0.28906   0.90861   1.000
    O220    O    0.36155   0.31401   0.94120   1.000
    O221    O    0.31392   0.36173   0.94121   1.000
loop_
    _geom_bond_atom_site_label_1
    _geom_bond_atom_site_label_2
    _geom_bond_distance
    _geom_bond_site_symmetry_2
    _ccdc_geom_bond_type
    Zr54   O84       1.34356  1_554   S
    Zr7    O84       1.34356      .   S
    Zr16   O85       0.70739      .   S
    Zr35   O85       0.70739      .   S
    Zr16   O86       0.70740      .   S
    Zr15   O86       0.70740      .   S
    Zr16   O87       0.70213      .   S
    Zr34   O87       0.70213  1_556   S
    Zr75   O88       0.67009      .   S
    Zr35   O88       0.67009      .   S
    Zr75   O89       1.01163      .   S
    Zr6    O89       1.01163      .   S
    Zr75   O90       0.69516  1_554   S
    Zr74   O90       0.69516      .   S
    Zr62   O91       0.66994      .   S
    Zr15   O91       0.66994      .   S
    Zr62   O92       1.01182      .   S
    Zr1    O92       1.01182      .   S
    Zr62   O93       0.69531      .   S
    Zr63   O93       0.69531  1_556   S
    Zr38   O94       0.70763      .   S
    Zr19   O94       0.70763      .   S
    Zr38   O95       0.66988  1_554   S
    Zr77   O95       0.66988      .   S
    Zr12   O96       0.70765      .   S
    Zr13   O96       0.70765      .   S
    Zr12   O97       0.66986  1_554   S
    Zr60   O97       0.66986      .   S
    Zr19   O98       0.70771      .   S
    Zr18   O98       0.70771      .   S
    Zr19   O99       0.70032      .   S
    Zr37   O99       0.70032  1_656   S
    Zr13   O100      0.70763      .   S
    Zr32   O100      0.70763      .   S
    Zr13   O101      0.70046      .   S
    Zr31   O101      0.70046  1_566   S
    Zr72   O102      1.01236      .   S
    Zr6    O102      1.01236      .   S
    Zr72   O103      0.69521      .   S
    Zr73   O103      0.69521      .   S
    Zr72   O104      0.66987      .   S
    Zr30   O104      0.66987  1_556   S
    Zr65   O105      1.01272      .   S
    Zr1    O105      1.01272      .   S
    Zr65   O106      0.69515      .   S
    Zr64   O106      0.69515      .   S
    Zr65   O107      0.66989      .   S
    Zr20   O107      0.66989  1_556   S
    Zr1    O108      1.34350      .   S
    Zr48   O108      1.34350  1_556   S
    Zr18   O109      0.66939  1_455   S
    Zr64   O109      0.66939      .   S
    Zr32   O110      0.66958  1_545   S
    Zr73   O110      0.66958      .   S
    Zr73   O111      1.01259      .   S
    Zr11   O111      1.01259      .   S
    Zr64   O112      1.01275      .   S
    Zr2    O112      1.01275      .   S
    Zr55   O113      1.33560      .   S
    Zr11   O113      1.33560      .   S
    Zr51   O114      1.33516      .   S
    Zr2    O114      1.33516      .   S
    Zr11   O115      1.34360      .   S
    Zr58   O115      1.34360  1_545   S
    Zr11   O116      1.01159      .   S
    Zr82   O116      1.01159      .   S
    Zr2    O117      1.01138      .   S
    Zr67   O117      1.01138      .   S
    Zr50   O118      1.34418  1_655   S
    Zr3    O118      1.34418      .   S
    Zr67   O119      0.67007      .   S
    Zr23   O119      0.67007      .   S
    Zr67   O120      0.69535  1_655   S
    Zr66   O120      0.69535      .   S
    Zr82   O121      0.67007      .   S
    Zr45   O121      0.67007      .   S
    Zr82   O122      0.69529  1_565   S
    Zr83   O122      0.69529      .   S
    Zr23   O123      0.70744      .   S
    Zr40   O123      0.70744      .   S
    Zr45   O124      0.70739      .   S
    Zr46   O124      0.70739      .   S
    Zr3    O125      1.01154      .   S
    Zr66   O125      1.01154      .   S
    Zr3    O126      1.01297      .   S
    Zr69   O126      1.01297      .   S
    Zr3    O127      1.33514      .   S
    Zr53   O127      1.33514      .   S
    Zr10   O128      1.01161      .   S
    Zr83   O128      1.01161      .   S
    Zr10   O129      1.01275      .   S
    Zr80   O129      1.01275      .   S
    Zr10   O130      1.33508      .   S
    Zr59   O130      1.33508      .   S
    Zr83   O131      0.67010      .   S
    Zr47   O131      0.67010      .   S
    Zr66   O132      0.67000      .   S
    Zr21   O132      0.67000      .   S
    Zr40   O133      0.70740      .   S
    Zr39   O133      0.70740      .   S
    Zr40   O134      0.70230  1_655   S
    Zr22   O134      0.70230      .   S
    Zr46   O135      0.70742      .   S
    Zr29   O135      0.70742      .   S
    Zr46   O136      0.70229  1_565   S
    Zr28   O136      0.70229      .   S
    Zr39   O137      0.67001      .   S
    Zr78   O137      0.67001      .   S
    Zr29   O138      0.66935      .   S
    Zr71   O138      0.66935      .   S
    Zr42   O139      0.66959  1_565   S
    Zr80   O139      0.66959      .   S
    Zr42   O140      0.70766      .   S
    Zr43   O140      0.70766      .   S
    Zr26   O141      0.66940  1_655   S
    Zr69   O141      0.66940      .   S
    Zr26   O142      0.70767      .   S
    Zr43   O142      0.70767      .   S
    Zr80   O143      0.69514      .   S
    Zr81   O143      0.69514      .   S
    Zr69   O144      0.69514      .   S
    Zr68   O144      0.69514      .   S
    Zr43   O145      0.70018  1_665   S
    Zr25   O145      0.70018      .   S
    Zr25   O146      0.70766      .   S
    Zr44   O146      0.70766      .   S
    Zr25   O147      0.70766      .   S
    Zr24   O147      0.70766      .   S
    Zr81   O148      0.66941      .   S
    Zr44   O148      0.66941  1_455   S
    Zr81   O149      1.01296      .   S
    Zr9    O149      1.01296      .   S
    Zr68   O150      0.66959      .   S
    Zr24   O150      0.66959  1_545   S
    Zr68   O151      1.01275      .   S
    Zr4    O151      1.01275      .   S
    Zr47   O152      0.70738      .   S
    Zr28   O152      0.70738      .   S
    Zr21   O153      0.70741      .   S
    Zr22   O153      0.70741      .   S
    Zr28   O154      0.70737      .   S
    Zr27   O154      0.70737      .   S
    Zr22   O155      0.70744      .   S
    Zr41   O155      0.70744      .   S
    Zr71   O156      1.01194      .   S
    Zr4    O156      1.01194      .   S
    Zr71   O157      0.69569      .   S
    Zr70   O157      0.69569  1_545   S
    Zr78   O158      1.01153      .   S
    Zr9    O158      1.01153      .   S
    Zr78   O159      0.69535      .   S
    Zr79   O159      0.69535  1_455   S
    Zr9    O160      1.34411      .   S
    Zr56   O160      1.34411  1_455   S
    Zr27   O161      0.67004      .   S
    Zr70   O161      0.67004      .   S
    Zr41   O162      0.67008      .   S
    Zr79   O162      0.67008      .   S
    Zr70   O163      1.01168      .   S
    Zr5    O163      1.01168      .   S
    Zr79   O164      1.01135      .   S
    Zr8    O164      1.01135      .   S
    Zr52   O165      1.34346      .   S
    Zr5    O165      1.34346      .   S
    Zr8    O166      1.33506      .   S
    Zr57   O166      1.33506      .   S
    Zr8    O167      1.01282      .   S
    Zr76   O167      1.01282      .   S
    Zr5    O168      1.01253      .   S
    Zr61   O168      1.01253      .   S
    Zr49   O169      1.33573      .   S
    Zr0    O169      1.33573      .   S
    Zr76   O170      0.66941      .   S
    Zr36   O170      0.66941  1_655   S
    Zr76   O171      0.69515      .   S
    Zr77   O171      0.69515      .   S
    Zr61   O172      0.66958      .   S
    Zr14   O172      0.66958  1_565   S
    Zr61   O173      0.69520      .   S
    Zr60   O173      0.69520      .   S
    Zr14   O174      0.70764      .   S
    Zr31   O174      0.70764      .   S
    Zr36   O175      0.70763      .   S
    Zr37   O175      0.70763      .   S
    Zr7    O176      1.01270      .   S
    Zr77   O176      1.01270      .   S
    Zr7    O177      1.01167      .   S
    Zr74   O177      1.01167      .   S
    Zr0    O178      1.01236      .   S
    Zr60   O178      1.01236      .   S
    Zr0    O179      1.01158      .   S
    Zr63   O179      1.01158      .   S
    Zr31   O180      0.70764      .   S
    Zr30   O180      0.70764      .   S
    Zr37   O181      0.70767      .   S
    Zr20   O181      0.70767      .   S
    Zr33   O182      0.67006      .   S
    Zr74   O182      0.67006      .   S
    Zr33   O183      0.70738      .   S
    Zr34   O183      0.70738      .   S
    Zr17   O184      0.67008      .   S
    Zr63   O184      0.67008      .   S
    Zr17   O185      0.70738      .   S
    Zr34   O185      0.70738      .   S
    N186   O187      1.07970      .   S
    Zr44   O187      1.70648      .   S
    N186   O188      1.07875      .   S
    Zr24   O188      1.70750      .   S
    N189   O190      1.07951      .   S
    Zr12   O190      1.70627      .   S
    N189   O191      1.07949      .   S
    Zr32   O191      1.70624      .   S
    N192   O193      1.08673      .   S
    Zr23   O193      1.71788      .   S
    N192   O194      1.08670      .   S
    Zr39   O194      1.71783      .   S
    N195   O196      1.07944      .   S
    Zr18   O196      1.70617      .   S
    N195   O197      1.07963      .   S
    Zr38   O197      1.70651      .   S
    N198   O199      1.07949      .   S
    Zr14   O199      1.70629      .   S
    N198   O200      1.07952      .   S
    Zr30   O200      1.70627      .   S
    N201   O202      1.08662      .   S
    Zr21   O202      1.71775      .   S
    N201   O203      1.08671      .   S
    Zr41   O203      1.71782      .   S
    N204   O205      1.07974      .   S
    Zr20   O205      1.70662      .   S
    N204   O206      1.07944      .   S
    Zr36   O206      1.70621      .   S
    N207   O208      1.08673      .   S
    Zr35   O208      1.71791      .   S
    N207   O209      1.08655      .   S
    Zr15   O209      1.71763      .   S
    N210   O211      1.07970      .   S
    Zr42   O211      1.70657      .   S
    N210   O212      1.07952      .   S
    Zr26   O212      1.70632      .   S
    N213   O214      1.08655      .   S
    Zr47   O214      1.71759      .   S
    N213   O215      1.08671      .   S
    Zr27   O215      1.71788      .   S
    N216   O217      1.08677      .   S
    Zr29   O217      1.71784      .   S
    N216   O218      1.08670      .   S
    Zr45   O218      1.71792      .   S
    N219   O220      1.08676      .   S
    Zr17   O220      1.71793      .   S
    N219   O221      1.08657      .   S
    Zr33   O221      1.71763      .   S
