# CIF file generated by openbabel 2.4.90, see http://openbabel.sf.net
data_I
_chemical_name_common ''
_cell_length_a 18.416
_cell_length_b 18.423
_cell_length_c 18.422
_cell_angle_alpha 60.238
_cell_angle_beta 60.207
_cell_angle_gamma 60.208
_space_group_name_H-M_alt 'P 1'
_space_group_name_Hall 'P 1'
loop_
    _symmetry_equiv_pos_as_xyz
    x,y,z
loop_
    _atom_site_label
    _atom_site_type_symbol
    _atom_site_fract_x
    _atom_site_fract_y
    _atom_site_fract_z
    _atom_site_occupancy
    Zr0     Zr   0.20673   0.38037   0.20670   1.000
    Zr1     Zr   0.38049   0.20676   0.20676   1.000
    Zr2     Zr   0.20615   0.20638   0.20638   1.000
    Zr3     Zr   0.20673   0.20669   0.38039   1.000
    Zr4     Zr   0.61952   0.79321   0.79320   1.000
    Zr5     Zr   0.79328   0.61960   0.79332   1.000
    Zr6     Zr   0.79386   0.79359   0.79364   1.000
    Zr7     Zr   0.79327   0.79328   0.61962   1.000
    N8      N    0.00000   0.49999   0.50001   1.000
    O9      O    0.08501   0.37800   0.45225   1.000
    O10     O    0.08501   0.45224   0.37801   1.000
    O11     O    0.91500   0.62198   0.54776   1.000
    O12     O    0.91500   0.54774   0.62200   1.000
    N13     N    0.00001   0.49999   0.99997   1.000
    O14     O    0.91501   0.54773   0.91502   1.000
    O15     O    0.91528   0.62208   0.91515   1.000
    O16     O    0.08500   0.45224   0.08496   1.000
    O17     O    0.08473   0.37789   0.08483   1.000
    N18     N    0.50001   0.49999   0.00001   1.000
    O19     O    0.54771   0.62195   0.91496   1.000
    O20     O    0.62200   0.54772   0.91503   1.000
    O21     O    0.37801   0.45225   0.08499   1.000
    O22     O    0.45230   0.37802   0.08504   1.000
    N23     N    0.50001   0.99998   0.49998   1.000
    O24     O    0.62200   0.91500   0.54773   1.000
    O25     O    0.45230   0.08503   0.37802   1.000
    O26     O    0.37802   0.08497   0.45225   1.000
    O27     O    0.54771   0.91494   0.62195   1.000
    N28     N    0.50000   0.99999   1.00000   1.000
    O29     O    0.62219   0.91514   0.91517   1.000
    O30     O    0.37782   0.08483   0.08482   1.000
    O31     O    0.45228   0.08499   0.08500   1.000
    O32     O    0.54773   0.91498   0.91499   1.000
    N33     N    0.00001   0.99999   0.49944   1.000
    O34     O    0.08473   0.08484   0.37762   1.000
    O35     O    0.91528   0.91513   0.62183   1.000
    O36     O    0.08500   0.08496   0.45198   1.000
    O37     O    0.91501   0.91501   0.54747   1.000
    N38     N    0.75001   0.74998   0.75001   1.000
    O39     O    0.76083   0.71738   0.76084   1.000
    O40     O    0.76083   0.76080   0.71741   1.000
    O41     O    0.71739   0.76079   0.76081   1.000
    O42     O    0.76097   0.76088   0.76092   1.000
    N43     N    0.25000   0.25000   0.25000   1.000
    O44     O    0.23918   0.28259   0.23917   1.000
    O45     O    0.23918   0.23917   0.28260   1.000
    O46     O    0.23904   0.23909   0.23910   1.000
    O47     O    0.28262   0.23919   0.23919   1.000
loop_
    _geom_bond_atom_site_label_1
    _geom_bond_atom_site_label_2
    _geom_bond_distance
    _geom_bond_site_symmetry_2
    _ccdc_geom_bond_type
    N8     O9        2.31813      .   S
    Zr3    O9        3.30255      .   S
    N8     O10       2.31806      .   S
    Zr0    O10       3.30249      .   S
    N8     O11       2.31811  1_455   S
    Zr7    O11       3.30254      .   S
    N8     O12       2.31809  1_455   S
    Zr5    O12       3.30253      .   S
    N13    O14       2.31774  1_455   S
    Zr5    O14       3.30213      .   S
    N13    O15       2.31989  1_455   S
    Zr6    O15       3.30537      .   S
    N13    O16       2.31825  1_556   S
    Zr0    O16       3.30271      .   S
    N13    O17       2.32021  1_556   S
    Zr2    O17       3.30574      .   S
    N18    O19       2.31824  1_554   S
    Zr4    O19       3.30266      .   S
    N18    O20       2.31798  1_554   S
    Zr5    O20       3.30226      .   S
    N18    O21       2.31798      .   S
    Zr0    O21       3.30226      .   S
    N18    O22       2.31824      .   S
    Zr1    O22       3.30266      .   S
    N23    O24       2.31810      .   S
    Zr7    O24       3.30241      .   S
    N23    O25       2.31806  1_565   S
    Zr1    O25       3.30249      .   S
    N23    O26       2.31784  1_565   S
    Zr3    O26       3.30215      .   S
    N23    O27       2.31829      .   S
    Zr4    O27       3.30233      .   S
    N28    O29       2.32038      .   S
    Zr6    O29       3.30611      .   S
    N28    O30       2.32030  1_566   S
    Zr2    O30       3.30644      .   S
    N28    O31       2.31869  1_566   S
    Zr1    O31       3.30349      .   S
    N28    O32       2.31876      .   S
    Zr4    O32       3.30395      .   S
    N33    O34       2.31863  1_565   S
    Zr2    O34       3.30422      .   S
    N33    O35       2.32176  1_455   S
    Zr6    O35       3.30716      .   S
    N33    O36       2.31968  1_565   S
    Zr3    O36       3.30401      .   S
    N33    O37       2.31668  1_455   S
    Zr7    O37       3.30119      .   S
    N38    O39       0.49169      .   S
    Zr5    O39       1.47508      .   S
    N38    O40       0.49170      .   S
    Zr7    O40       1.47511      .   S
    N38    O41       0.49177      .   S
    Zr4    O41       1.47530      .   S
    N38    O42       0.49212      .   S
    Zr6    O42       1.47637      .   S
    N43    O44       0.49169      .   S
    Zr0    O44       1.47508      .   S
    N43    O45       0.49170      .   S
    Zr3    O45       1.47511      .   S
    N43    O46       0.49208      .   S
    Zr2    O46       1.47624      .   S
    N43    O47       0.49177      .   S
    Zr1    O47       1.47530      .   S
