# CIF file generated by openbabel 2.4.90, see http://openbabel.sf.net
data_I
_chemical_name_common ''
_cell_length_a 7.3995
_cell_length_b 12.889
_cell_length_c 20.85
_cell_angle_alpha 90
_cell_angle_beta 90.001
_cell_angle_gamma 90.056
_space_group_name_H-M_alt 'P 1'
_space_group_name_Hall 'P 1'
loop_
    _symmetry_equiv_pos_as_xyz
    x,y,z
loop_
    _atom_site_label
    _atom_site_type_symbol
    _atom_site_fract_x
    _atom_site_fract_y
    _atom_site_fract_z
    _atom_site_occupancy
    H0      H    0.38151   0.83735   0.10853   1.000
    H1      H    0.52074   0.75599   0.01317   1.000
    H2      H    0.28140   0.98911   0.89258   1.000
    H3      H    0.14828   0.07310   0.98830   1.000
    H4      H    0.10275   0.08584   0.09964   1.000
    H5      H    0.12230   0.97387   0.14787   1.000
    H6      H    0.38248   0.23159   0.09579   1.000
    H7      H    0.57543   0.21476   0.14483   1.000
    H8      H    0.11791   0.33759   0.89134   1.000
    H9      H    0.97903   0.25585   0.98663   1.000
    H10     H    0.21858   0.48901   0.10737   1.000
    H11     H    0.35162   0.57325   0.01170   1.000
    H12     H    0.39708   0.58624   0.90034   1.000
    H13     H    0.37716   0.47438   0.85203   1.000
    H14     H    0.11751   0.73200   0.90429   1.000
    H15     H    0.92450   0.71506   0.85537   1.000
    H16     H    0.61845   0.16266   0.60856   1.000
    H17     H    0.47928   0.24405   0.51320   1.000
    H18     H    0.71841   0.01082   0.39264   1.000
    H19     H    0.85167   0.92691   0.48836   1.000
    H20     H    0.89687   0.91407   0.59974   1.000
    H21     H    0.87768   0.02614   0.64790   1.000
    H22     H    0.61757   0.76861   0.59591   1.000
    H23     H    0.42443   0.78536   0.64487   1.000
    H24     H    0.88196   0.66247   0.39133   1.000
    H25     H    0.02107   0.74412   0.48664   1.000
    H26     H    0.78145   0.51097   0.60733   1.000
    H27     H    0.64828   0.42678   0.51165   1.000
    H28     H    0.60255   0.41389   0.40038   1.000
    H29     H    0.62270   0.52567   0.35202   1.000
    H30     H    0.88252   0.26799   0.40441   1.000
    H31     H    0.07547   0.28497   0.35540   1.000
    H32     H    0.61848   0.16268   0.89148   1.000
    H33     H    0.47923   0.24405   0.98682   1.000
    H34     H    0.71846   0.01091   0.10743   1.000
    H35     H    0.85168   0.92695   0.01172   1.000
    H36     H    0.89716   0.91417   0.90037   1.000
    H37     H    0.87769   0.02615   0.85215   1.000
    H38     H    0.61736   0.76843   0.90418   1.000
    H39     H    0.42441   0.78535   0.85516   1.000
    H40     H    0.88191   0.66247   0.10872   1.000
    H41     H    0.02108   0.74415   0.01338   1.000
    H42     H    0.78137   0.51104   0.89269   1.000
    H43     H    0.64826   0.42681   0.98836   1.000
    H44     H    0.60279   0.41382   0.09971   1.000
    H45     H    0.62281   0.52564   0.14805   1.000
    H46     H    0.88231   0.26809   0.09565   1.000
    H47     H    0.07556   0.28494   0.14469   1.000
    H48     H    0.38157   0.83733   0.39150   1.000
    H49     H    0.52076   0.75599   0.48687   1.000
    H50     H    0.28136   0.98912   0.60742   1.000
    H51     H    0.14828   0.07310   0.51169   1.000
    H52     H    0.10273   0.08583   0.40043   1.000
    H53     H    0.12224   0.97390   0.35216   1.000
    H54     H    0.38256   0.23160   0.40428   1.000
    H55     H    0.57547   0.21474   0.35523   1.000
    H56     H    0.11792   0.33757   0.60872   1.000
    H57     H    0.97881   0.25596   0.51337   1.000
    H58     H    0.21847   0.48908   0.39272   1.000
    H59     H    0.35163   0.57326   0.48839   1.000
    H60     H    0.39732   0.58619   0.59963   1.000
    H61     H    0.37729   0.47443   0.64803   1.000
    H62     H    0.11748   0.73207   0.59562   1.000
    H63     H    0.92453   0.71509   0.64462   1.000
    C64     C    0.35647   0.87026   0.06111   1.000
    C65     C    0.43476   0.82416   0.00728   1.000
    C66     C    0.41350   0.86804   0.94613   1.000
    C67     C    0.30153   0.95502   0.93990   1.000
    C68     C    0.22713   0.00224   0.99380   1.000
    C69     C    0.25772   0.96266   0.05547   1.000
    C70     C    0.19488   0.02279   0.11311   1.000
    C71     C    0.48509   0.17494   0.11066   1.000
    C72     C    0.14313   0.37042   0.93878   1.000
    C73     C    0.06500   0.32410   0.99259   1.000
    C74     C    0.08637   0.36788   0.05378   1.000
    C75     C    0.19835   0.45498   0.06004   1.000
    C76     C    0.27273   0.50233   0.00616   1.000
    C77     C    0.24186   0.46294   0.94445   1.000
    C78     C    0.30476   0.52321   0.88684   1.000
    C79     C    0.01485   0.67527   0.88945   1.000
    C80     C    0.64350   0.12977   0.56113   1.000
    C81     C    0.56522   0.17587   0.50731   1.000
    C82     C    0.58644   0.13195   0.44618   1.000
    C83     C    0.69835   0.04494   0.43996   1.000
    C84     C    0.77284   0.99777   0.49386   1.000
    C85     C    0.74222   0.03736   0.55551   1.000
    C86     C    0.80494   0.97723   0.61317   1.000
    C87     C    0.51481   0.82520   0.61072   1.000
    C88     C    0.85681   0.62961   0.43877   1.000
    C89     C    0.93502   0.67589   0.49258   1.000
    C90     C    0.91367   0.63209   0.55375   1.000
    C91     C    0.80167   0.54501   0.56000   1.000
    C92     C    0.72723   0.49768   0.50613   1.000
    C93     C    0.75800   0.53713   0.44445   1.000
    C94     C    0.69501   0.47684   0.38685   1.000
    C95     C    0.98506   0.32477   0.38951   1.000
    C96     C    0.64351   0.12978   0.93890   1.000
    C97     C    0.56521   0.17589   0.99272   1.000
    C98     C    0.58641   0.13199   0.05388   1.000
    C99     C    0.69836   0.04500   0.06011   1.000
    C100    C    0.77284   0.99781   0.00622   1.000
    C101    C    0.74226   0.03738   0.94455   1.000
    C102    C    0.80507   0.97723   0.88691   1.000
    C103    C    0.51480   0.82512   0.88934   1.000
    C104    C    0.85677   0.62963   0.06128   1.000
    C105    C    0.93497   0.67593   0.00747   1.000
    C106    C    0.91363   0.63214   0.94628   1.000
    C107    C    0.80161   0.54505   0.94003   1.000
    C108    C    0.72721   0.49771   0.99390   1.000
    C109    C    0.75801   0.53713   0.05561   1.000
    C110    C    0.69516   0.47683   0.11322   1.000
    C111    C    0.98503   0.32478   0.11054   1.000
    C112    C    0.35652   0.87024   0.43893   1.000
    C113    C    0.43479   0.82416   0.49276   1.000
    C114    C    0.41351   0.86805   0.55390   1.000
    C115    C    0.30154   0.95503   0.56010   1.000
    C116    C    0.22711   0.00223   0.50621   1.000
    C117    C    0.25775   0.96264   0.44456   1.000
    C118    C    0.19485   0.02279   0.38694   1.000
    C119    C    0.48512   0.17493   0.38940   1.000
    C120    C    0.14311   0.37041   0.56128   1.000
    C121    C    0.06495   0.32413   0.50745   1.000
    C122    C    0.08628   0.36794   0.44629   1.000
    C123    C    0.19826   0.45504   0.44005   1.000
    C124    C    0.27273   0.50234   0.49392   1.000
    C125    C    0.24189   0.46291   0.55560   1.000
    C126    C    0.30493   0.52321   0.61318   1.000
    C127    C    0.01491   0.67530   0.61051   1.000
    S128    S    0.37965   0.07666   0.16243   1.000
    S129    S    0.12017   0.57721   0.83755   1.000
    S130    S    0.62004   0.92356   0.66250   1.000
    S131    S    0.87958   0.42274   0.33759   1.000
    S132    S    0.62025   0.92344   0.83758   1.000
    S133    S    0.87978   0.42279   0.16247   1.000
    S134    S    0.37961   0.07669   0.33762   1.000
    S135    S    0.12039   0.57733   0.66244   1.000
loop_
    _geom_bond_atom_site_label_1
    _geom_bond_atom_site_label_2
    _geom_bond_distance
    _geom_bond_site_symmetry_2
    _ccdc_geom_bond_type
    C76    H11       1.09027      .   S
    C76    C75       1.39162      .   S
    C76    C77       1.40186  1_554   S
    C100   H35       1.09024      .   S
    C100   C99       1.39167  1_565   S
    C100   C101      1.40184  1_564   S
    C65    H1        1.09219      .   S
    C65    C64       1.39600      .   S
    C65    C66       1.40379  1_554   S
    C105   H41       1.09237  1_655   S
    C105   C104      1.39605      .   S
    C105   C106      1.40389  1_554   S
    C74    C75       1.40072      .   S
    C74    C111      1.50686  1_455   S
    C74    C73       1.40384  1_554   S
    C98    C99       1.40071      .   S
    C98    C71       1.50699      .   S
    C98    C97       1.40376  1_554   S
    C69    C64       1.40273      .   S
    C69    C70       1.50399  1_565   S
    C69    C68       1.40185  1_564   S
    C109   C104      1.40282      .   S
    C109   C110      1.50408      .   S
    C109   C108      1.40185  1_554   S
    C75    H10       1.09035      .   S
    C99    H34       1.09034      .   S
    C64    H0        1.09181      .   S
    C104   H40       1.09182      .   S
    H46    C111      1.09849      .   S
    H6     C71       1.09851      .   S
    H4     C70       1.09769      .   S
    H44    C110      1.09769      .   S
    C111   H47       1.10464  1_655   S
    C111   S133      1.83760      .   S
    C71    H7        1.10331      .   S
    C71    S128      1.83756      .   S
    C70    H5        1.10035  1_545   S
    C70    S128      1.84585      .   S
    C110   H45       1.10021      .   S
    C110   S133      1.84598      .   S
    S131   C94       1.84621      .   S
    S131   C95       1.83781      .   S
    S134   C118      1.84577      .   S
    S134   C119      1.83755      .   S
    H29    C94       1.10021      .   S
    H53    C118      1.10034  1_565   S
    H55    C119      1.10330      .   S
    H31    C95       1.10335  1_455   S
    C94    H28       1.09771      .   S
    C94    C93       1.50404      .   S
    C118   H52       1.09771      .   S
    C118   C117      1.50397  1_545   S
    C119   H54       1.09853      .   S
    C119   C82       1.50701      .   S
    C95    H30       1.09850      .   S
    C95    C122      1.50700  1_655   S
    H24    C88       1.09182      .   S
    H48    C112      1.09184      .   S
    H18    C83       1.09035      .   S
    H58    C123      1.09033      .   S
    C88    C93       1.40281      .   S
    C88    C89       1.39607      .   S
    C112   C117      1.40277      .   S
    C112   C113      1.39604      .   S
    C83    C82       1.40071      .   S
    C83    C84       1.39172  1_545   S
    C123   C122      1.40072      .   S
    C123   C124      1.39153      .   S
    C93    C92       1.40139      .   S
    C117   C116      1.40147  1_565   S
    C82    C81       1.40342      .   S
    C122   C121      1.40352      .   S
    H25    C89       1.09234  1_455   S
    H49    C113      1.09221      .   S
    H19    C84       1.09025      .   S
    H59    C124      1.09026      .   S
    C89    C90       1.40346      .   S
    C113   C114      1.40352      .   S
    C84    C85       1.40151  1_565   S
    C124   C125      1.40143      .   S
    C92    H27       1.09025      .   S
    C92    C91       1.39160      .   S
    C116   H51       1.09023      .   S
    C116   C115      1.39161  1_545   S
    C81    H17       1.09220      .   S
    C81    C80       1.39592      .   S
    C121   H57       1.09195  1_455   S
    C121   C120      1.39610      .   S
    C90    C91       1.40068      .   S
    C90    C127      1.50711  1_655   S
    C114   C115      1.40068      .   S
    C114   C87       1.50703      .   S
    C85    C80       1.40274      .   S
    C85    C86       1.50399  1_545   S
    C125   C120      1.40282      .   S
    C125   C126      1.50404      .   S
    C91    H26       1.09032      .   S
    C115   H50       1.09031      .   S
    C80    H16       1.09182      .   S
    C120   H56       1.09183      .   S
    H62    C127      1.09851      .   S
    H22    C87       1.09845      .   S
    H60    C126      1.09771      .   S
    H20    C86       1.09766      .   S
    C127   H63       1.10314  1_455   S
    C127   S135      1.83781      .   S
    C87    H23       1.10330      .   S
    C87    S130      1.83772      .   S
    C86    H21       1.10037  1_565   S
    C86    S130      1.84574      .   S
    C126   H61       1.10021      .   S
    C126   S135      1.84596      .   S
    S129   C78       1.84602      .   S
    S129   C79       1.83786      .   S
    S132   C102      1.84582      .   S
    S132   C103      1.83768      .   S
    H13    C78       1.10021      .   S
    H37    C102      1.10038  1_545   S
    H39    C103      1.10333      .   S
    H15    C79       1.10241  1_655   S
    C78    H12       1.09768      .   S
    C78    C77       1.50413      .   S
    C102   H36       1.09768      .   S
    C102   C101      1.50398  1_565   S
    C103   H38       1.09848      .   S
    C103   C66       1.50693      .   S
    C79    H14       1.09847      .   S
    C79    C106      1.50787  1_455   S
    H8     C72       1.09180      .   S
    H32    C96       1.09180      .   S
    H2     C67       1.09032      .   S
    H42    C107      1.09034      .   S
    C72    C77       1.40279      .   S
    C72    C73       1.39605      .   S
    C96    C101      1.40273      .   S
    C96    C97       1.39599      .   S
    C67    C66       1.40070      .   S
    C67    C68       1.39166  1_565   S
    C107   C106      1.40073      .   S
    C107   C108      1.39162      .   S
    H9     C73       1.09208  1_655   S
    H33    C97       1.09220      .   S
    H3     C68       1.09024      .   S
    H43    C108      1.09026      .   S
