# CIF file generated by openbabel 2.4.90, see http://openbabel.sf.net
data_I
_chemical_name_common ''
_cell_length_a 7.3995
_cell_length_b 12.889
_cell_length_c 20.85
_cell_angle_alpha 90
_cell_angle_beta 90.001
_cell_angle_gamma 90.056
_space_group_name_H-M_alt 'P 1'
_space_group_name_Hall 'P 1'
loop_
    _symmetry_equiv_pos_as_xyz
    x,y,z
loop_
    _atom_site_label
    _atom_site_type_symbol
    _atom_site_fract_x
    _atom_site_fract_y
    _atom_site_fract_z
    _atom_site_occupancy
    Zr0     Zr   0.25824   0.16068   0.25002   1.000
    Zr1     Zr   0.24170   0.66203   0.75001   1.000
    Zr2     Zr   0.74164   0.83942   0.75001   1.000
    Zr3     Zr   0.75832   0.33798   0.25002   1.000
    N4      N    0.49996   0.00002   0.00000   1.000
    O5      O    0.40945   0.05935   0.10311   1.000
    O6      O    0.59045   0.94073   0.89690   1.000
    N7      N    0.99997   0.50002   0.00002   1.000
    O8      O    0.90951   0.44020   0.10313   1.000
    O9      O    0.09045   0.55982   0.89690   1.000
    N10     N    0.49996   0.00002   0.50004   1.000
    O11     O    0.40944   0.05935   0.39693   1.000
    O12     O    0.59040   0.94076   0.60315   1.000
    N13     N    0.99997   0.50003   0.50002   1.000
    O14     O    0.90946   0.44019   0.39691   1.000
    O15     O    0.09051   0.55985   0.60312   1.000
loop_
    _geom_bond_atom_site_label_1
    _geom_bond_atom_site_label_2
    _geom_bond_distance
    _geom_bond_site_symmetry_2
    _ccdc_geom_bond_type
    N4     O5        2.37827      .   S
    Zr0    O5        3.51319      .   S
    N4     O6        2.37796  1_544   S
    Zr2    O6        3.51270      .   S
    N7     O8        2.37979      .   S
    Zr3    O8        3.51628      .   S
    N7     O9        2.37996  1_654   S
    Zr1    O9        3.51638      .   S
    N10    O11       2.37830      .   S
    Zr0    O11       3.51326      .   S
    N10    O12       2.37775  1_545   S
    Zr2    O12       3.51240      .   S
    N13    O14       2.37985      .   S
    Zr3    O14       3.51611      .   S
    N13    O15       2.37983  1_655   S
    Zr1    O15       3.51615      .   S
