# CIF file generated by openbabel 2.4.90, see http://openbabel.sf.net
data_I
_chemical_name_common ''
_cell_length_a 15.885
_cell_length_b 18.338
_cell_length_c 19.602
_cell_angle_alpha 92.926
_cell_angle_beta 114.074
_cell_angle_gamma 82.713
_space_group_name_H-M_alt 'P 1'
_space_group_name_Hall 'P 1'
loop_
    _symmetry_equiv_pos_as_xyz
    x,y,z
loop_
    _atom_site_label
    _atom_site_type_symbol
    _atom_site_fract_x
    _atom_site_fract_y
    _atom_site_fract_z
    _atom_site_occupancy
    H0      H    0.02785   0.11661   0.12018   1.000
    H1      H    0.02786   0.11661   0.62017   1.000
    H2      H    0.02786   0.61660   0.12010   1.000
    H3      H    0.02786   0.61660   0.62017   1.000
    H4      H    0.52785   0.11661   0.12010   1.000
    H5      H    0.52785   0.11661   0.62017   1.000
    H6      H    0.52785   0.61660   0.12010   1.000
    H7      H    0.52785   0.61660   0.62017   1.000
    H8      H    0.46479   0.04724   0.06275   1.000
    H9      H    0.46479   0.04724   0.56273   1.000
    H10     H    0.46479   0.54723   0.06275   1.000
    H11     H    0.46479   0.54723   0.56273   1.000
    H12     H    0.96478   0.04724   0.06270   1.000
    H13     H    0.96478   0.04724   0.56273   1.000
    H14     H    0.96478   0.54723   0.06270   1.000
    H15     H    0.96478   0.54723   0.56273   1.000
    H16     H    0.05553   0.04262   0.23417   1.000
    H17     H    0.05554   0.04262   0.73416   1.000
    H18     H    0.05553   0.54261   0.23417   1.000
    H19     H    0.05554   0.54260   0.73416   1.000
    H20     H    0.55553   0.04262   0.23417   1.000
    H21     H    0.55554   0.04262   0.73416   1.000
    H22     H    0.55553   0.54261   0.23417   1.000
    H23     H    0.55554   0.54260   0.73416   1.000
    H24     H    0.00156   0.47042   0.17614   1.000
    H25     H    0.00157   0.47042   0.67613   1.000
    H26     H    0.00157   0.97041   0.17614   1.000
    H27     H    0.00157   0.97040   0.67613   1.000
    H28     H    0.50156   0.47042   0.17615   1.000
    H29     H    0.50157   0.47042   0.67613   1.000
    H30     H    0.50157   0.97040   0.17615   1.000
    H31     H    0.50157   0.97040   0.67613   1.000
    H32     H    0.09143   0.38355   0.11970   1.000
    H33     H    0.09144   0.38355   0.61960   1.000
    H34     H    0.09143   0.88353   0.11970   1.000
    H35     H    0.09144   0.88353   0.61960   1.000
    H36     H    0.59143   0.38355   0.11970   1.000
    H37     H    0.59143   0.38355   0.61968   1.000
    H38     H    0.59143   0.88354   0.11900   1.000
    H39     H    0.59143   0.88354   0.61968   1.000
    H40     H    0.09702   0.45327   0.06269   1.000
    H41     H    0.09702   0.45327   0.56267   1.000
    H42     H    0.09702   0.95326   0.06269   1.000
    H43     H    0.09703   0.95326   0.56267   1.000
    H44     H    0.59702   0.45328   0.06269   1.000
    H45     H    0.59702   0.45328   0.56267   1.000
    H46     H    0.59702   0.95327   0.06269   1.000
    H47     H    0.59702   0.95326   0.56267   1.000
    H48     H    0.17845   0.45685   0.23412   1.000
    H49     H    0.17845   0.45685   0.73411   1.000
    H50     H    0.17845   0.95684   0.23412   1.000
    H51     H    0.17846   0.95683   0.73411   1.000
    H52     H    0.67845   0.45685   0.23412   1.000
    H53     H    0.67845   0.45685   0.73410   1.000
    H54     H    0.67845   0.95684   0.23412   1.000
    H55     H    0.67846   0.95684   0.73410   1.000
    H56     H    0.17434   0.02939   0.17650   1.000
    H57     H    0.17434   0.02939   0.67640   1.000
    H58     H    0.17434   0.52938   0.17650   1.000
    H59     H    0.17434   0.52938   0.67648   1.000
    H60     H    0.67433   0.02940   0.17650   1.000
    H61     H    0.67434   0.02939   0.67648   1.000
    H62     H    0.67434   0.52938   0.17650   1.000
    H63     H    0.67434   0.52938   0.67648   1.000
    H64     H    0.47222   0.38335   0.37980   1.000
    H65     H    0.47222   0.38335   0.87979   1.000
    H66     H    0.47222   0.88333   0.37980   1.000
    H67     H    0.47223   0.88333   0.87979   1.000
    H68     H    0.97221   0.38335   0.37980   1.000
    H69     H    0.97222   0.38335   0.87979   1.000
    H70     H    0.97222   0.88333   0.37980   1.000
    H71     H    0.97222   0.88333   0.87979   1.000
    H72     H    0.03529   0.45271   0.43725   1.000
    H73     H    0.03529   0.45271   0.93723   1.000
    H74     H    0.03529   0.95270   0.43720   1.000
    H75     H    0.03530   0.95270   0.93723   1.000
    C76     C    0.63678   0.98425   0.68017   1.000
    H77     H    0.53528   0.45271   0.43724   1.000
    H78     H    0.53528   0.45271   0.93723   1.000
    H79     H    0.53528   0.95270   0.43724   1.000
    H80     H    0.53529   0.95270   0.93723   1.000
    H81     H    0.44454   0.45734   0.26582   1.000
    H82     H    0.44455   0.45734   0.76580   1.000
    H83     H    0.44454   0.95733   0.26582   1.000
    H84     H    0.44455   0.95733   0.76580   1.000
    H85     H    0.94454   0.45734   0.26582   1.000
    H86     H    0.94455   0.45734   0.76580   1.000
    H87     H    0.94454   0.95733   0.26582   1.000
    H88     H    0.94455   0.95733   0.76580   1.000
    H89     H    0.49851   0.02954   0.32385   1.000
    H90     H    0.49852   0.02954   0.82383   1.000
    H91     H    0.49851   0.52953   0.32385   1.000
    H92     H    0.49852   0.52953   0.82380   1.000
    H93     H    0.99851   0.02954   0.32385   1.000
    H94     H    0.99852   0.02954   0.82384   1.000
    H95     H    0.99851   0.52952   0.32385   1.000
    H96     H    0.99852   0.52952   0.82384   1.000
    H97     H    0.40865   0.11641   0.38030   1.000
    H98     H    0.40865   0.11640   0.88020   1.000
    H99     H    0.40865   0.61639   0.38030   1.000
    H100    H    0.40865   0.61639   0.88028   1.000
    H101    H    0.90864   0.11641   0.38000   1.000
    H102    H    0.90864   0.11641   0.88028   1.000
    H103    H    0.90864   0.61640   0.38029   1.000
    H104    H    0.90865   0.61640   0.88028   1.000
    H105    H    0.40305   0.04668   0.43730   1.000
    H106    H    0.40306   0.04667   0.93729   1.000
    H107    H    0.40306   0.54666   0.43730   1.000
    H108    H    0.40306   0.54666   0.93729   1.000
    H109    H    0.90305   0.04668   0.43730   1.000
    H110    H    0.90306   0.04668   0.93729   1.000
    H111    H    0.90305   0.54667   0.43730   1.000
    H112    H    0.90306   0.54667   0.93729   1.000
    H113    H    0.32163   0.04311   0.26587   1.000
    H114    H    0.32163   0.04311   0.76586   1.000
    H115    H    0.32163   0.54310   0.26587   1.000
    H116    H    0.32163   0.54310   0.76586   1.000
    H117    H    0.82163   0.04311   0.26587   1.000
    H118    H    0.82163   0.04311   0.76585   1.000
    H119    H    0.82163   0.54310   0.26587   1.000
    H120    H    0.82163   0.54310   0.76585   1.000
    H121    H    0.32574   0.47056   0.32349   1.000
    H122    H    0.32574   0.47056   0.82347   1.000
    H123    H    0.32574   0.97055   0.32349   1.000
    H124    H    0.32574   0.97055   0.82347   1.000
    H125    H    0.82573   0.47057   0.32349   1.000
    H126    H    0.82574   0.47057   0.82347   1.000
    H127    H    0.82574   0.97055   0.32349   1.000
    H128    H    0.82574   0.97055   0.82347   1.000
    C129    C    0.48584   0.07267   0.11840   1.000
    C130    C    0.48584   0.07267   0.61845   1.000
    C131    C    0.48584   0.57266   0.11840   1.000
    C132    C    0.48584   0.57265   0.61845   1.000
    C133    C    0.98582   0.07267   0.11846   1.000
    C134    C    0.98583   0.07267   0.61845   1.000
    C135    C    0.98583   0.57266   0.11846   1.000
    C136    C    0.98583   0.57265   0.61845   1.000
    C137    C    0.04298   0.01553   0.18014   1.000
    C138    C    0.04298   0.01553   0.68012   1.000
    C139    C    0.04298   0.51552   0.18014   1.000
    C140    C    0.04298   0.51552   0.68012   1.000
    C141    C    0.54298   0.01553   0.18014   1.000
    C142    C    0.54298   0.01553   0.68012   1.000
    C143    C    0.54298   0.51552   0.18014   1.000
    C144    C    0.54298   0.51552   0.68012   1.000
    C145    C    0.13187   0.42750   0.11829   1.000
    C146    C    0.13187   0.42750   0.61820   1.000
    C147    C    0.13187   0.92749   0.11829   1.000
    C148    C    0.13187   0.92749   0.61820   1.000
    C149    C    0.63186   0.42751   0.11829   1.000
    C150    C    0.63187   0.42750   0.61827   1.000
    C151    C    0.63187   0.92749   0.11829   1.000
    C152    C    0.63187   0.92749   0.61827   1.000
    C153    C    0.13678   0.48426   0.18019   1.000
    C154    C    0.13678   0.48426   0.68017   1.000
    C155    C    0.13678   0.98425   0.18019   1.000
    C156    C    0.13678   0.98425   0.68017   1.000
    C157    C    0.63678   0.48426   0.18018   1.000
    C158    C    0.63678   0.48426   0.68017   1.000
    C159    C    0.63678   0.98425   0.18018   1.000
    C160    C    0.01424   0.42729   0.38153   1.000
    C161    C    0.01425   0.42729   0.88151   1.000
    C162    C    0.01425   0.92727   0.38153   1.000
    C163    C    0.01425   0.92727   0.88151   1.000
    C164    C    0.51423   0.42729   0.38150   1.000
    C165    C    0.51424   0.42729   0.88151   1.000
    C166    C    0.51424   0.92727   0.38150   1.000
    C167    C    0.51424   0.92727   0.88151   1.000
    C168    C    0.45710   0.48443   0.31980   1.000
    C169    C    0.45710   0.48443   0.81984   1.000
    C170    C    0.45710   0.98441   0.31985   1.000
    C171    C    0.45710   0.98441   0.81984   1.000
    C172    C    0.95710   0.48443   0.31986   1.000
    C173    C    0.95710   0.48443   0.81984   1.000
    C174    C    0.95710   0.98441   0.31980   1.000
    C175    C    0.95710   0.98441   0.81984   1.000
    C176    C    0.36821   0.07245   0.38170   1.000
    C177    C    0.36821   0.07245   0.88169   1.000
    C178    C    0.36821   0.57244   0.38170   1.000
    C179    C    0.36821   0.57244   0.88169   1.000
    C180    C    0.86820   0.07245   0.38170   1.000
    C181    C    0.86821   0.07245   0.88169   1.000
    C182    C    0.86821   0.57244   0.38170   1.000
    C183    C    0.86821   0.57244   0.88169   1.000
    C184    C    0.36330   0.01570   0.31981   1.000
    C185    C    0.36330   0.01569   0.81979   1.000
    C186    C    0.36330   0.51568   0.31981   1.000
    C187    C    0.36330   0.51568   0.81979   1.000
    C188    C    0.86329   0.01570   0.31980   1.000
    C189    C    0.86330   0.01570   0.81979   1.000
    C190    C    0.86330   0.51569   0.31980   1.000
    C191    C    0.86330   0.51568   0.81979   1.000
loop_
    _geom_bond_atom_site_label_1
    _geom_bond_atom_site_label_2
    _geom_bond_distance
    _geom_bond_site_symmetry_2
    _ccdc_geom_bond_type
    H40    C145      1.10072      .   S
    H42    C147      1.10072      .   S
    H46    C151      1.10074      .   S
    H44    C149      1.10074      .   S
    H14    C135      1.10148      .   S
    H12    C133      1.10148      .   S
    H8     C129      1.09966      .   S
    H10    C131      1.09966      .   S
    C149   H36       1.10054      .   S
    C149   C157      1.54130      .   S
    C145   H32       1.10053      .   S
    C145   C153      1.54146      .   S
    C147   H34       1.10054      .   S
    C147   C155      1.54146      .   S
    C151   H38       1.09649      .   S
    C151   C159      1.54130      .   S
    C131   H6        1.10058      .   S
    C131   C143      1.54220      .   S
    C129   H4        1.10058      .   S
    C129   C141      1.54220      .   S
    C135   H2        1.10108  1_655   S
    C135   C139      1.54156  1_655   S
    C133   H0        1.10067  1_655   S
    C133   C137      1.54156  1_655   S
    H24    C139      1.10103      .   S
    H26    C137      1.10139  1_565   S
    H30    C141      1.10143  1_565   S
    H28    C143      1.10106      .   S
    H60    C159      1.10135  1_545   S
    H58    C153      1.10105      .   S
    H56    C155      1.10142  1_545   S
    H62    C157      1.10099      .   S
    C143   C157      1.52678      .   S
    C143   H22       1.09877      .   S
    C141   C159      1.52695  1_545   S
    C141   H20       1.09877      .   S
    C139   C153      1.52672      .   S
    C139   H18       1.09878      .   S
    C137   C155      1.52690  1_545   S
    C137   H16       1.09878      .   S
    C159   H54       1.09893      .   S
    C157   H52       1.09893      .   S
    C155   H50       1.09878      .   S
    C153   H48       1.09878      .   S
    H87    C174      1.09792      .   S
    H85    C172      1.09893      .   S
    H81    C168      1.09790      .   S
    H83    C170      1.09875      .   S
    H113   C184      1.09894      .   S
    H119   C190      1.09879      .   S
    H117   C188      1.09880      .   S
    H115   C186      1.09894      .   S
    C190   C172      1.52668      .   S
    C190   H125      1.10108      .   S
    C190   C182      1.54144      .   S
    C188   C174      1.52727  1_545   S
    C188   H127      1.10144  1_545   S
    C188   C180      1.54143      .   S
    C168   C186      1.52717      .   S
    C168   H91       1.10084      .   S
    C168   C164      1.54177      .   S
    C174   H93       1.10120  1_565   S
    C174   C162      1.54215  1_655   S
    C186   H121      1.10101      .   S
    C186   C178      1.54127      .   S
    C184   C170      1.52697  1_545   S
    C184   H123      1.10137  1_545   S
    C184   C176      1.54127      .   S
    C170   H89       1.10142  1_565   S
    C170   C166      1.54120      .   S
    C172   H95       1.10108      .   S
    C172   C160      1.54147  1_655   S
    H70    C162      1.10064  1_655   S
    H68    C160      1.10062  1_655   S
    H66    C166      1.10060      .   S
    H64    C164      1.10062      .   S
    H101   C180      1.10226      .   S
    H103   C182      1.10053      .   S
    H97    C176      1.10049      .   S
    H99    C178      1.10049      .   S
    C166   H79       1.10114      .   S
    C164   H77       1.10113      .   S
    C160   H72       1.10080      .   S
    C162   H74       1.09997      .   S
    C182   H111      1.10075      .   S
    C180   H109      1.10075      .   S
    C178   H107      1.10075      .   S
    C176   H105      1.10076      .   S
    H41    C146      1.09962      .   S
    H43    C148      1.09962      .   S
    H45    C150      1.10074      .   S
    H47    C152      1.10074      .   S
    H15    C136      1.10081      .   S
    H9     C130      1.10082      .   S
    H13    C134      1.10082      .   S
    H11    C132      1.10081      .   S
    C146   H33       1.10047      .   S
    C146   C154      1.54247      .   S
    C148   H35       1.10046      .   S
    C148   C156      1.54246      .   S
    C152   H39       1.10054      .   S
    C152   C76       1.54144      .   S
    C150   H37       1.10054      .   S
    C150   C158      1.54144      .   S
    C134   H1        1.10067  1_655   S
    C134   C138      1.54144  1_655   S
    C132   H7        1.10048      .   S
    C132   C144      1.54140      .   S
    C130   H5        1.10048      .   S
    C130   C142      1.54141      .   S
    C136   H3        1.10068  1_655   S
    C136   C140      1.54144  1_655   S
    H31    C142      1.10144  1_565   S
    H29    C144      1.10108      .   S
    H27    C138      1.10145  1_565   S
    H25    C140      1.10108      .   S
    H57    C156      1.10193  1_545   S
    H63    C158      1.10106      .   S
    H61    C76       1.10142  1_545   S
    H59    C154      1.10105      .   S
    C142   C76       1.52687  1_545   S
    C142   H21       1.09894      .   S
    C140   C154      1.52673      .   S
    C140   H19       1.09894      .   S
    C138   C156      1.52689  1_545   S
    C138   H17       1.09894      .   S
    C144   C158      1.52671      .   S
    C144   H23       1.09893      .   S
    C154   H49       1.09893      .   S
    C156   H51       1.09893      .   S
    C76    H55       1.09880      .   S
    C158   H53       1.09879      .   S
    H84    C171      1.09893      .   S
    H86    C173      1.09894      .   S
    H82    C169      1.09893      .   S
    H88    C175      1.09893      .   S
    H120   C191      1.09894      .   S
    H118   C189      1.09894      .   S
    H116   C187      1.09881      .   S
    H114   C185      1.09881      .   S
    C189   C175      1.52692  1_545   S
    C189   H128      1.10138  1_545   S
    C189   C181      1.54144      .   S
    C191   C173      1.52673      .   S
    C191   H126      1.10100      .   S
    C191   C183      1.54144      .   S
    C185   C171      1.52689  1_545   S
    C185   H124      1.10137  1_545   S
    C185   C177      1.54141      .   S
    C187   C169      1.52672      .   S
    C187   H122      1.10100      .   S
    C187   C179      1.54142      .   S
    C169   H92       1.10121      .   S
    C169   C165      1.54143      .   S
    C171   H90       1.10145  1_565   S
    C171   C167      1.54143      .   S
    C173   H96       1.10103      .   S
    C173   C161      1.54146  1_655   S
    C175   H94       1.10141  1_565   S
    C175   C163      1.54145  1_655   S
    H71    C163      1.10069  1_655   S
    H69    C161      1.10069  1_655   S
    H67    C167      1.10049      .   S
    H65    C165      1.10049      .   S
    H98    C177      1.10102      .   S
    H104   C183      1.10054      .   S
    H100   C179      1.10054      .   S
    H102   C181      1.10054      .   S
    C163   H75       1.10080      .   S
    C161   H73       1.10080      .   S
    C165   H78       1.10080      .   S
    C167   H80       1.10080      .   S
    C181   H110      1.10075      .   S
    C183   H112      1.10075      .   S
    C179   H108      1.10076      .   S
    C177   H106      1.10075      .   S
