# CIF file generated by openbabel 2.4.90, see http://openbabel.sf.net
data_I
_chemical_name_common ''
_cell_length_a 15.885
_cell_length_b 18.338
_cell_length_c 19.602
_cell_angle_alpha 92.926
_cell_angle_beta 114.074
_cell_angle_gamma 82.713
_space_group_name_H-M_alt 'P 1'
_space_group_name_Hall 'P 1'
loop_
    _symmetry_equiv_pos_as_xyz
    x,y,z
loop_
    _atom_site_label
    _atom_site_type_symbol
    _atom_site_fract_x
    _atom_site_fract_y
    _atom_site_fract_z
    _atom_site_occupancy
    Zr0     Zr   0.00004   0.24998   0.25000   1.000
    Zr1     Zr   0.00005   0.24998   0.74998   1.000
    Zr2     Zr   0.00005   0.74996   0.25000   1.000
    Zr3     Zr   0.00005   0.74996   0.74998   1.000
    Zr4     Zr   0.50004   0.24998   0.25000   1.000
    Zr5     Zr   0.50004   0.24998   0.74998   1.000
    Zr6     Zr   0.50004   0.74996   0.25000   1.000
    Zr7     Zr   0.50004   0.74996   0.74998   1.000
    Zr8     Zr   0.25004   0.24997   0.25000   1.000
    Zr9     Zr   0.25004   0.24997   0.74998   1.000
    Zr10    Zr   0.25004   0.74996   0.25000   1.000
    Zr11    Zr   0.25005   0.74996   0.74998   1.000
    Zr12    Zr   0.75003   0.24998   0.24999   1.000
    Zr13    Zr   0.75003   0.24998   0.74998   1.000
    Zr14    Zr   0.75003   0.74996   0.24999   1.000
    Zr15    Zr   0.75004   0.74996   0.74998   1.000
    Zr16    Zr   0.25004   0.99998   0.00000   1.000
    Zr17    Zr   0.25004   0.99998   0.49999   1.000
    Zr18    Zr   0.25005   0.49996   0.00000   1.000
    Zr19    Zr   0.25004   0.49997   0.49999   1.000
    Zr20    Zr   0.75004   0.99998   0.00000   1.000
    Zr21    Zr   0.75003   0.99998   0.49999   1.000
    Zr22    Zr   0.75004   0.49997   0.00000   1.000
    Zr23    Zr   0.75004   0.49997   0.49999   1.000
    Zr24    Zr   0.40102   0.10534   0.12873   1.000
    Zr25    Zr   0.40103   0.10534   0.62872   1.000
    Zr26    Zr   0.40102   0.60533   0.12873   1.000
    Zr27    Zr   0.40103   0.60533   0.62872   1.000
    Zr28    Zr   0.90101   0.10534   0.12873   1.000
    Zr29    Zr   0.90101   0.10534   0.62871   1.000
    Zr30    Zr   0.90101   0.60533   0.12873   1.000
    Zr31    Zr   0.90102   0.60533   0.62871   1.000
    Zr32    Zr   0.22702   0.39475   0.12859   1.000
    Zr33    Zr   0.22702   0.39475   0.62858   1.000
    Zr34    Zr   0.22702   0.89474   0.12859   1.000
    Zr35    Zr   0.22702   0.89474   0.62858   1.000
    Zr36    Zr   0.72701   0.39475   0.12859   1.000
    Zr37    Zr   0.72702   0.39475   0.62858   1.000
    Zr38    Zr   0.72701   0.89474   0.12859   1.000
    Zr39    Zr   0.72702   0.89474   0.62858   1.000
    Zr40    Zr   0.09906   0.39461   0.37126   1.000
    Zr41    Zr   0.09906   0.39461   0.87125   1.000
    Zr42    Zr   0.09906   0.89460   0.37126   1.000
    Zr43    Zr   0.09907   0.89460   0.87125   1.000
    Zr44    Zr   0.59905   0.39461   0.37126   1.000
    Zr45    Zr   0.59905   0.39461   0.87125   1.000
    Zr46    Zr   0.59905   0.89460   0.37126   1.000
    Zr47    Zr   0.59906   0.89460   0.87125   1.000
    Zr48    Zr   0.27306   0.10520   0.37140   1.000
    Zr49    Zr   0.27306   0.10520   0.87139   1.000
    Zr50    Zr   0.27306   0.60519   0.37140   1.000
    Zr51    Zr   0.27307   0.60519   0.87139   1.000
    Zr52    Zr   0.77306   0.10521   0.37140   1.000
    Zr53    Zr   0.77306   0.10520   0.87138   1.000
    Zr54    Zr   0.77306   0.60519   0.37140   1.000
    Zr55    Zr   0.77306   0.60519   0.87138   1.000
    Zr56    Zr   0.30977   0.16461   0.17436   1.000
    Zr57    Zr   0.30977   0.16461   0.67435   1.000
    Zr58    Zr   0.30977   0.66460   0.17436   1.000
    Zr59    Zr   0.30977   0.66460   0.67435   1.000
    Zr60    Zr   0.80976   0.16462   0.17436   1.000
    Zr61    Zr   0.80976   0.16462   0.67435   1.000
    Zr62    Zr   0.80976   0.66460   0.17436   1.000
    Zr63    Zr   0.80976   0.66460   0.67435   1.000
    Zr64    Zr   0.25975   0.12039   0.12292   1.000
    Zr65    Zr   0.25975   0.12040   0.62291   1.000
    Zr66    Zr   0.25975   0.62038   0.12292   1.000
    Zr67    Zr   0.25975   0.62038   0.62291   1.000
    Zr68    Zr   0.75974   0.12040   0.12292   1.000
    Zr69    Zr   0.75974   0.12040   0.62290   1.000
    Zr70    Zr   0.75974   0.62039   0.12292   1.000
    Zr71    Zr   0.75974   0.62039   0.62290   1.000
    Zr72    Zr   0.31604   0.08272   0.09342   1.000
    Zr73    Zr   0.31604   0.08272   0.59341   1.000
    Zr74    Zr   0.31604   0.58270   0.09342   1.000
    Zr75    Zr   0.31604   0.58270   0.59341   1.000
    Zr76    Zr   0.81603   0.08272   0.09342   1.000
    Zr77    Zr   0.81603   0.08272   0.59340   1.000
    Zr78    Zr   0.81603   0.58271   0.09340   1.000
    Zr79    Zr   0.81603   0.58271   0.59340   1.000
    Zr80    Zr   0.39842   0.15670   0.17946   1.000
    Zr81    Zr   0.39842   0.15670   0.67940   1.000
    Zr82    Zr   0.39842   0.65668   0.17946   1.000
    Zr83    Zr   0.39842   0.65668   0.67940   1.000
    Zr84    Zr   0.89841   0.15670   0.17940   1.000
    Zr85    Zr   0.89841   0.15670   0.67944   1.000
    Zr86    Zr   0.89841   0.65669   0.17946   1.000
    Zr87    Zr   0.89841   0.65669   0.67944   1.000
    Zr88    Zr   0.36420   0.33533   0.17438   1.000
    Zr89    Zr   0.36420   0.33533   0.67436   1.000
    Zr90    Zr   0.36420   0.83531   0.17438   1.000
    Zr91    Zr   0.36420   0.83531   0.67436   1.000
    Zr92    Zr   0.86419   0.33533   0.17430   1.000
    Zr93    Zr   0.86419   0.33533   0.67436   1.000
    Zr94    Zr   0.86419   0.83531   0.17437   1.000
    Zr95    Zr   0.86420   0.83531   0.67436   1.000
    Zr96    Zr   0.36248   0.37953   0.12290   1.000
    Zr97    Zr   0.36249   0.37953   0.62288   1.000
    Zr98    Zr   0.36249   0.87952   0.12290   1.000
    Zr99    Zr   0.36249   0.87952   0.62288   1.000
    Zr100   Zr   0.86248   0.37953   0.12289   1.000
    Zr101   Zr   0.86248   0.37954   0.62288   1.000
    Zr102   Zr   0.86248   0.87952   0.12200   1.000
    Zr103   Zr   0.86249   0.87952   0.62288   1.000
    Zr104   Zr   0.27653   0.41732   0.09331   1.000
    Zr105   Zr   0.27654   0.41732   0.59329   1.000
    Zr106   Zr   0.27653   0.91731   0.09331   1.000
    Zr107   Zr   0.27654   0.91731   0.59329   1.000
    Zr108   Zr   0.77653   0.41732   0.09330   1.000
    Zr109   Zr   0.77653   0.41732   0.59329   1.000
    Zr110   Zr   0.77653   0.91731   0.09330   1.000
    Zr111   Zr   0.77653   0.91731   0.59329   1.000
    Zr112   Zr   0.28065   0.34336   0.17941   1.000
    Zr113   Zr   0.28065   0.34336   0.67940   1.000
    Zr114   Zr   0.28065   0.84335   0.17940   1.000
    Zr115   Zr   0.28065   0.84335   0.67940   1.000
    Zr116   Zr   0.78064   0.34337   0.17941   1.000
    Zr117   Zr   0.78065   0.34336   0.67940   1.000
    Zr118   Zr   0.78065   0.84335   0.17941   1.000
    Zr119   Zr   0.78065   0.84335   0.67940   1.000
    Zr120   Zr   0.19031   0.33534   0.32563   1.000
    Zr121   Zr   0.19032   0.33534   0.82562   1.000
    Zr122   Zr   0.19031   0.83532   0.32563   1.000
    Zr123   Zr   0.19032   0.83532   0.82562   1.000
    Zr124   Zr   0.69030   0.33534   0.32563   1.000
    Zr125   Zr   0.69031   0.33534   0.82560   1.000
    Zr126   Zr   0.69030   0.83533   0.32563   1.000
    Zr127   Zr   0.69031   0.83533   0.82561   1.000
    Zr128   Zr   0.24033   0.37956   0.37707   1.000
    Zr129   Zr   0.24034   0.37956   0.87706   1.000
    Zr130   Zr   0.24034   0.87954   0.37707   1.000
    Zr131   Zr   0.24034   0.87954   0.87706   1.000
    Zr132   Zr   0.74032   0.37956   0.37707   1.000
    Zr133   Zr   0.74033   0.37956   0.87705   1.000
    Zr134   Zr   0.74032   0.87955   0.37707   1.000
    Zr135   Zr   0.74033   0.87955   0.87705   1.000
    Zr136   Zr   0.18405   0.41723   0.40657   1.000
    Zr137   Zr   0.18405   0.41723   0.90656   1.000
    Zr138   Zr   0.18405   0.91722   0.40657   1.000
    Zr139   Zr   0.18405   0.91722   0.90656   1.000
    Zr140   Zr   0.68403   0.41724   0.40657   1.000
    Zr141   Zr   0.68404   0.41724   0.90656   1.000
    Zr142   Zr   0.68404   0.91722   0.40657   1.000
    Zr143   Zr   0.68404   0.91723   0.90650   1.000
    Zr144   Zr   0.10166   0.34325   0.32054   1.000
    Zr145   Zr   0.10167   0.34325   0.82052   1.000
    Zr146   Zr   0.10167   0.84324   0.32050   1.000
    Zr147   Zr   0.10167   0.84324   0.82052   1.000
    Zr148   Zr   0.60165   0.34325   0.32053   1.000
    Zr149   Zr   0.60166   0.34325   0.82052   1.000
    Zr150   Zr   0.60166   0.84324   0.32053   1.000
    Zr151   Zr   0.60166   0.84324   0.82052   1.000
    Zr152   Zr   0.13588   0.16462   0.32562   1.000
    Zr153   Zr   0.13588   0.16462   0.82561   1.000
    Zr154   Zr   0.13588   0.66461   0.32562   1.000
    Zr155   Zr   0.13589   0.66461   0.82561   1.000
    Zr156   Zr   0.63587   0.16463   0.32562   1.000
    Zr157   Zr   0.63588   0.16463   0.82560   1.000
    Zr158   Zr   0.63588   0.66461   0.32562   1.000
    Zr159   Zr   0.63588   0.66461   0.82560   1.000
    Zr160   Zr   0.13759   0.12042   0.37710   1.000
    Zr161   Zr   0.13760   0.12042   0.87709   1.000
    Zr162   Zr   0.13760   0.62040   0.37710   1.000
    Zr163   Zr   0.13760   0.62041   0.87709   1.000
    Zr164   Zr   0.63759   0.12042   0.37710   1.000
    Zr165   Zr   0.63760   0.12042   0.87709   1.000
    Zr166   Zr   0.63759   0.62040   0.37710   1.000
    Zr167   Zr   0.63760   0.62041   0.87709   1.000
    Zr168   Zr   0.22355   0.08263   0.40669   1.000
    Zr169   Zr   0.22355   0.08263   0.90668   1.000
    Zr170   Zr   0.22355   0.58262   0.40669   1.000
    Zr171   Zr   0.22355   0.58262   0.90668   1.000
    Zr172   Zr   0.72354   0.08263   0.40669   1.000
    Zr173   Zr   0.72355   0.08263   0.90660   1.000
    Zr174   Zr   0.72355   0.58262   0.40669   1.000
    Zr175   Zr   0.72355   0.58262   0.90660   1.000
    Zr176   Zr   0.21943   0.15659   0.32058   1.000
    Zr177   Zr   0.21943   0.15659   0.82057   1.000
    Zr178   Zr   0.21943   0.65657   0.32058   1.000
    Zr179   Zr   0.21943   0.65657   0.82057   1.000
    Zr180   Zr   0.71942   0.15659   0.32058   1.000
    Zr181   Zr   0.71942   0.15659   0.82056   1.000
    Zr182   Zr   0.71942   0.65658   0.32058   1.000
    Zr183   Zr   0.71943   0.65658   0.82050   1.000
    Zr184   Zr   0.07739   0.25007   0.15529   1.000
    Zr185   Zr   0.07739   0.25007   0.65520   1.000
    Zr186   Zr   0.07739   0.75006   0.15529   1.000
    Zr187   Zr   0.07739   0.75006   0.65527   1.000
    Zr188   Zr   0.57738   0.25007   0.15529   1.000
    Zr189   Zr   0.57738   0.25007   0.65527   1.000
    Zr190   Zr   0.57738   0.75006   0.15529   1.000
    Zr191   Zr   0.57738   0.75006   0.65527   1.000
    Zr192   Zr   0.42269   0.24988   0.34471   1.000
    Zr193   Zr   0.42270   0.24988   0.84469   1.000
    Zr194   Zr   0.42269   0.74987   0.34471   1.000
    Zr195   Zr   0.42270   0.74987   0.84469   1.000
    Zr196   Zr   0.92268   0.24988   0.34470   1.000
    Zr197   Zr   0.92269   0.24988   0.84469   1.000
    Zr198   Zr   0.92268   0.74987   0.34470   1.000
    Zr199   Zr   0.92269   0.74987   0.84469   1.000
    O200    O    0.81951   0.89842   0.10765   1.000
    O201    O    0.75177   0.90602   0.11094   1.000
    O202    O    0.76328   0.95865   0.04665   1.000
    O203    O    0.81950   0.39843   0.10809   1.000
    O204    O    0.75177   0.40604   0.11094   1.000
    O205    O    0.76328   0.45864   0.04665   1.000
    O206    O    0.31951   0.39843   0.10810   1.000
    O207    O    0.25177   0.40604   0.11095   1.000
    O208    O    0.26329   0.45864   0.04665   1.000
    O209    O    0.31951   0.89842   0.10810   1.000
    O210    O    0.25178   0.90602   0.11095   1.000
    O211    O    0.26329   0.95864   0.04665   1.000
    O212    O    0.78788   0.60155   0.10816   1.000
    O213    O    0.85852   0.59402   0.11106   1.000
    O214    O    0.78303   0.54134   0.04670   1.000
    O215    O    0.78788   0.10156   0.10817   1.000
    O216    O    0.85852   0.09403   0.11107   1.000
    O217    O    0.78303   0.04135   0.04671   1.000
    O218    O    0.28789   0.60154   0.10817   1.000
    O219    O    0.35853   0.59402   0.11107   1.000
    O220    O    0.28304   0.54133   0.04671   1.000
    O221    O    0.28789   0.10156   0.10817   1.000
    O222    O    0.35853   0.09403   0.11107   1.000
    O223    O    0.28304   0.04135   0.04671   1.000
    O224    O    0.86334   0.85742   0.14818   1.000
    O225    O    0.86334   0.35743   0.14859   1.000
    O226    O    0.36334   0.85742   0.14864   1.000
    O227    O    0.36334   0.35743   0.14864   1.000
    O228    O    0.28476   0.14250   0.14864   1.000
    O229    O    0.28476   0.64249   0.14864   1.000
    O230    O    0.78475   0.14251   0.14864   1.000
    O231    O    0.78475   0.64250   0.14864   1.000
    O232    O    0.75383   0.86905   0.15400   1.000
    O233    O    0.75383   0.36906   0.15400   1.000
    O234    O    0.25383   0.86904   0.15399   1.000
    O235    O    0.25383   0.36906   0.15400   1.000
    O236    O    0.39972   0.13102   0.15409   1.000
    O237    O    0.89971   0.63101   0.15409   1.000
    O238    O    0.89971   0.13102   0.15406   1.000
    O239    O    0.39972   0.63101   0.15409   1.000
    O240    O    0.66371   0.75001   0.20264   1.000
    O241    O    0.66370   0.25003   0.20264   1.000
    O242    O    0.16372   0.75001   0.20264   1.000
    O243    O    0.16371   0.25002   0.20264   1.000
    O244    O    0.82242   0.33935   0.17685   1.000
    O245    O    0.93212   0.29265   0.21215   1.000
    O246    O    0.85408   0.66065   0.17691   1.000
    O247    O    0.77989   0.70728   0.21217   1.000
    O248    O    0.85408   0.16066   0.17688   1.000
    O249    O    0.77989   0.20730   0.21217   1.000
    O250    O    0.35409   0.66064   0.17691   1.000
    O251    O    0.27991   0.70728   0.21218   1.000
    O252    O    0.35409   0.16066   0.17691   1.000
    O253    O    0.27990   0.20729   0.21218   1.000
    O254    O    0.82242   0.83933   0.17689   1.000
    O255    O    0.93212   0.79264   0.21218   1.000
    O256    O    0.32242   0.83933   0.17689   1.000
    O257    O    0.43212   0.79264   0.21219   1.000
    O258    O    0.32242   0.33935   0.17689   1.000
    O259    O    0.43212   0.29265   0.21219   1.000
    O260    O    0.94922   0.20334   0.21470   1.000
    O261    O    0.26535   0.79666   0.21470   1.000
    O262    O    0.76534   0.29667   0.21470   1.000
    O263    O    0.76534   0.79666   0.21470   1.000
    O264    O    0.26534   0.29667   0.21470   1.000
    O265    O    0.44923   0.20334   0.21473   1.000
    O266    O    0.94923   0.70332   0.21473   1.000
    O267    O    0.44923   0.70332   0.21473   1.000
    O268    O    0.73472   0.20328   0.28528   1.000
    O269    O    0.72017   0.29266   0.28781   1.000
    O270    O    0.83636   0.24993   0.29734   1.000
    O271    O    0.73473   0.70327   0.28528   1.000
    O272    O    0.72017   0.79265   0.28781   1.000
    O273    O    0.83636   0.74992   0.29734   1.000
    O274    O    0.05085   0.29661   0.28527   1.000
    O275    O    0.06796   0.20730   0.28781   1.000
    O276    O    0.05086   0.79660   0.28525   1.000
    O277    O    0.06796   0.70729   0.28781   1.000
    O278    O    0.55085   0.29662   0.28526   1.000
    O279    O    0.56796   0.20730   0.28781   1.000
    O280    O    0.55085   0.79660   0.28526   1.000
    O281    O    0.56796   0.70729   0.28781   1.000
    O282    O    0.23473   0.20328   0.28529   1.000
    O283    O    0.22018   0.29266   0.28781   1.000
    O284    O    0.33637   0.24993   0.29735   1.000
    O285    O    0.23473   0.70327   0.28529   1.000
    O286    O    0.22018   0.79264   0.28781   1.000
    O287    O    0.33637   0.74991   0.29735   1.000
    O288    O    0.14599   0.83928   0.32306   1.000
    O289    O    0.10036   0.86892   0.34588   1.000
    O290    O    0.64598   0.33930   0.32308   1.000
    O291    O    0.60035   0.36893   0.34589   1.000
    O292    O    0.64598   0.83928   0.32308   1.000
    O293    O    0.60035   0.86892   0.34589   1.000
    O294    O    0.14599   0.33929   0.32308   1.000
    O295    O    0.10036   0.36893   0.34590   1.000
    O296    O    0.67765   0.16061   0.32310   1.000
    O297    O    0.74624   0.13090   0.34599   1.000
    O298    O    0.17765   0.66059   0.32310   1.000
    O299    O    0.24624   0.63088   0.34599   1.000
    O300    O    0.67765   0.66060   0.32310   1.000
    O301    O    0.74624   0.63088   0.34599   1.000
    O302    O    0.17765   0.16061   0.32310   1.000
    O303    O    0.24624   0.13089   0.34599   1.000
    O304    O    0.13674   0.64251   0.35136   1.000
    O305    O    0.13674   0.14252   0.35136   1.000
    O306    O    0.63673   0.64251   0.35136   1.000
    O307    O    0.63673   0.14252   0.35136   1.000
    O308    O    0.71531   0.35745   0.35135   1.000
    O309    O    0.21532   0.35745   0.35135   1.000
    O310    O    0.21533   0.85743   0.35135   1.000
    O311    O    0.71531   0.85744   0.35135   1.000
    O312    O    0.14155   0.40592   0.38891   1.000
    O313    O    0.14156   0.90591   0.38891   1.000
    O314    O    0.64154   0.40592   0.38891   1.000
    O315    O    0.64154   0.90591   0.38891   1.000
    O316    O    0.24831   0.59390   0.38904   1.000
    O317    O    0.24830   0.09392   0.38904   1.000
    O318    O    0.74830   0.59391   0.38904   1.000
    O319    O    0.74830   0.09392   0.38904   1.000
    O320    O    0.21219   0.89838   0.39182   1.000
    O321    O    0.71218   0.89839   0.39182   1.000
    O322    O    0.71218   0.39840   0.39182   1.000
    O323    O    0.21219   0.39840   0.39182   1.000
    O324    O    0.18057   0.10152   0.39189   1.000
    O325    O    0.68057   0.60151   0.39189   1.000
    O326    O    0.68057   0.10153   0.39189   1.000
    O327    O    0.18057   0.60151   0.39189   1.000
    O328    O    0.21704   0.95860   0.45328   1.000
    O329    O    0.71703   0.45860   0.45328   1.000
    O330    O    0.71704   0.95860   0.45328   1.000
    O331    O    0.21704   0.45860   0.45328   1.000
    O332    O    0.73679   0.04131   0.45334   1.000
    O333    O    0.23680   0.54129   0.45334   1.000
    O334    O    0.23679   0.04131   0.45334   1.000
    O335    O    0.73679   0.54130   0.45334   1.000
    O336    O    0.26329   0.95865   0.54664   1.000
    O337    O    0.28304   0.04135   0.54670   1.000
    O338    O    0.26329   0.45865   0.54664   1.000
    O339    O    0.28304   0.54134   0.54670   1.000
    O340    O    0.76328   0.45865   0.54664   1.000
    O341    O    0.78303   0.54134   0.54669   1.000
    O342    O    0.76328   0.95865   0.54664   1.000
    O343    O    0.78303   0.04135   0.54669   1.000
    O344    O    0.31951   0.89842   0.60808   1.000
    O345    O    0.25178   0.90602   0.61093   1.000
    O346    O    0.81951   0.39843   0.60808   1.000
    O347    O    0.75177   0.40604   0.61093   1.000
    O348    O    0.31951   0.39843   0.60808   1.000
    O349    O    0.25178   0.40603   0.61093   1.000
    O350    O    0.81951   0.89842   0.60808   1.000
    O351    O    0.75178   0.90602   0.61093   1.000
    O352    O    0.78788   0.10156   0.60815   1.000
    O353    O    0.85852   0.09403   0.61105   1.000
    O354    O    0.78789   0.60155   0.60815   1.000
    O355    O    0.85852   0.59402   0.61105   1.000
    O356    O    0.28790   0.10156   0.60816   1.000
    O357    O    0.35853   0.09403   0.61106   1.000
    O358    O    0.28790   0.60154   0.60816   1.000
    O359    O    0.35854   0.59402   0.61106   1.000
    O360    O    0.36334   0.35743   0.64862   1.000
    O361    O    0.86334   0.35743   0.64862   1.000
    O362    O    0.86334   0.85742   0.64862   1.000
    O363    O    0.36335   0.85742   0.64862   1.000
    O364    O    0.78475   0.64250   0.64862   1.000
    O365    O    0.78475   0.14251   0.64862   1.000
    O366    O    0.28476   0.64249   0.64863   1.000
    O367    O    0.28476   0.14250   0.64863   1.000
    O368    O    0.75383   0.86905   0.65399   1.000
    O369    O    0.75383   0.36906   0.65399   1.000
    O370    O    0.25384   0.36906   0.65399   1.000
    O371    O    0.25384   0.86904   0.65399   1.000
    O372    O    0.89971   0.63101   0.65407   1.000
    O373    O    0.89971   0.13102   0.65407   1.000
    O374    O    0.39973   0.63101   0.65406   1.000
    O375    O    0.39972   0.13102   0.65406   1.000
    O376    O    0.16372   0.25002   0.70259   1.000
    O377    O    0.16372   0.75001   0.70262   1.000
    O378    O    0.66371   0.25003   0.70262   1.000
    O379    O    0.66371   0.75001   0.70262   1.000
    O380    O    0.85409   0.66065   0.67689   1.000
    O381    O    0.77990   0.70728   0.71216   1.000
    O382    O    0.35410   0.66064   0.67687   1.000
    O383    O    0.27991   0.70728   0.71216   1.000
    O384    O    0.85409   0.16066   0.67689   1.000
    O385    O    0.77990   0.20730   0.71216   1.000
    O386    O    0.35410   0.16066   0.67687   1.000
    O387    O    0.27991   0.20729   0.71216   1.000
    O388    O    0.82242   0.83933   0.67688   1.000
    O389    O    0.93212   0.79264   0.71217   1.000
    O390    O    0.82242   0.33935   0.67688   1.000
    O391    O    0.93212   0.29265   0.71217   1.000
    O392    O    0.32243   0.33934   0.67688   1.000
    O393    O    0.43212   0.29265   0.71217   1.000
    O394    O    0.32243   0.83933   0.67688   1.000
    O395    O    0.43212   0.79264   0.71217   1.000
    O396    O    0.26535   0.29667   0.71469   1.000
    O397    O    0.44923   0.70332   0.71469   1.000
    O398    O    0.44923   0.20334   0.71469   1.000
    O399    O    0.26535   0.79666   0.71469   1.000
    O400    O    0.76534   0.29667   0.71469   1.000
    O401    O    0.76534   0.79666   0.71469   1.000
    O402    O    0.94923   0.20334   0.71471   1.000
    O403    O    0.94923   0.70332   0.71471   1.000
    O404    O    0.05086   0.29661   0.78525   1.000
    O405    O    0.06797   0.20730   0.78779   1.000
    O406    O    0.05086   0.79660   0.78525   1.000
    O407    O    0.06797   0.70729   0.78779   1.000
    O408    O    0.55085   0.29662   0.78525   1.000
    O409    O    0.56796   0.20730   0.78779   1.000
    O410    O    0.55085   0.79660   0.78525   1.000
    O411    O    0.56796   0.70729   0.78779   1.000
    O412    O    0.23474   0.20328   0.78527   1.000
    O413    O    0.22018   0.29266   0.78780   1.000
    O414    O    0.33637   0.24993   0.79733   1.000
    O415    O    0.73473   0.70327   0.78524   1.000
    O416    O    0.72017   0.79265   0.78779   1.000
    O417    O    0.83636   0.74992   0.79733   1.000
    O418    O    0.73473   0.20328   0.78527   1.000
    O419    O    0.72017   0.29266   0.78779   1.000
    O420    O    0.83636   0.24993   0.79733   1.000
    O421    O    0.23474   0.70327   0.78527   1.000
    O422    O    0.22018   0.79264   0.78780   1.000
    O423    O    0.33637   0.74991   0.79733   1.000
    O424    O    0.67765   0.66059   0.82305   1.000
    O425    O    0.74624   0.63088   0.84594   1.000
    O426    O    0.64598   0.83928   0.82306   1.000
    O427    O    0.60036   0.86892   0.84588   1.000
    O428    O    0.14599   0.33929   0.82307   1.000
    O429    O    0.10037   0.36893   0.84588   1.000
    O430    O    0.64598   0.33930   0.82306   1.000
    O431    O    0.60036   0.36893   0.84588   1.000
    O432    O    0.14600   0.83928   0.82307   1.000
    O433    O    0.10037   0.86892   0.84588   1.000
    O434    O    0.67765   0.16061   0.82308   1.000
    O435    O    0.74624   0.13090   0.84597   1.000
    O436    O    0.17766   0.66059   0.82309   1.000
    O437    O    0.24625   0.63088   0.84598   1.000
    O438    O    0.17766   0.16061   0.82309   1.000
    O439    O    0.24625   0.13089   0.84598   1.000
    O440    O    0.63674   0.14252   0.85134   1.000
    O441    O    0.63674   0.64251   0.85134   1.000
    O442    O    0.71532   0.35745   0.85132   1.000
    O443    O    0.71532   0.85744   0.85133   1.000
    O444    O    0.13674   0.64251   0.85135   1.000
    O445    O    0.13674   0.14252   0.85135   1.000
    O446    O    0.21533   0.85743   0.85134   1.000
    O447    O    0.21533   0.35745   0.85134   1.000
    O448    O    0.64155   0.40592   0.88890   1.000
    O449    O    0.14156   0.90591   0.88890   1.000
    O450    O    0.64155   0.90591   0.88887   1.000
    O451    O    0.14156   0.40592   0.88890   1.000
    O452    O    0.74831   0.59390   0.88899   1.000
    O453    O    0.74830   0.09392   0.88899   1.000
    O454    O    0.24831   0.59390   0.88903   1.000
    O455    O    0.24831   0.09392   0.88903   1.000
    O456    O    0.71218   0.39840   0.89180   1.000
    O457    O    0.71218   0.89839   0.89177   1.000
    O458    O    0.21220   0.89838   0.89181   1.000
    O459    O    0.21219   0.39840   0.89181   1.000
    O460    O    0.18058   0.10153   0.89188   1.000
    O461    O    0.18058   0.60151   0.89188   1.000
    O462    O    0.68057   0.10153   0.89184   1.000
    O463    O    0.68057   0.60151   0.89184   1.000
    O464    O    0.71704   0.95860   0.95325   1.000
    O465    O    0.71704   0.45860   0.95328   1.000
    O466    O    0.21705   0.95860   0.95328   1.000
    O467    O    0.21705   0.45860   0.95328   1.000
    O468    O    0.73679   0.54129   0.95330   1.000
    O469    O    0.73679   0.04131   0.95330   1.000
    O470    O    0.23680   0.04130   0.95334   1.000
    O471    O    0.23680   0.54129   0.95334   1.000
    N472    N    0.42604   0.99996   0.85136   1.000
    O473    O    0.37334   0.04439   0.86395   1.000
    O474    O    0.49135   0.95545   0.86387   1.000
    N475    N    0.92604   0.49996   0.85136   1.000
    O476    O    0.99135   0.45545   0.86387   1.000
    O477    O    0.87334   0.54439   0.86395   1.000
    N478    N    0.42604   0.49996   0.85136   1.000
    O479    O    0.37334   0.54438   0.86395   1.000
    O480    O    0.49134   0.45545   0.86387   1.000
    N481    N    0.57404   0.99999   0.64859   1.000
    O482    O    0.62674   0.95555   0.63601   1.000
    O483    O    0.50874   0.04450   0.63609   1.000
    N484    N    0.57404   0.99999   0.14854   1.000
    O485    O    0.62674   0.95555   0.13599   1.000
    O486    O    0.50873   0.04450   0.13605   1.000
    N487    N    0.92604   0.99996   0.35135   1.000
    O488    O    0.87333   0.04439   0.36395   1.000
    O489    O    0.99135   0.95545   0.36387   1.000
    N490    N    0.42604   0.99996   0.35138   1.000
    O491    O    0.37334   0.04439   0.36396   1.000
    O492    O    0.49134   0.95545   0.36388   1.000
    N493    N    0.42604   0.49996   0.35137   1.000
    O494    O    0.37334   0.54439   0.36396   1.000
    O495    O    0.49134   0.45545   0.36388   1.000
    N496    N    0.92604   0.99996   0.85136   1.000
    O497    O    0.99135   0.95545   0.86387   1.000
    O498    O    0.87334   0.04439   0.86395   1.000
    N499    N    0.92604   0.49996   0.35138   1.000
    O500    O    0.87334   0.54439   0.36396   1.000
    O501    O    0.99135   0.45545   0.36389   1.000
    N502    N    0.07404   0.99999   0.14861   1.000
    O503    O    0.12674   0.95555   0.13602   1.000
    O504    O    0.00873   0.04450   0.13610   1.000
    N505    N    0.07404   0.49999   0.64858   1.000
    O506    O    0.00873   0.54449   0.63608   1.000
    O507    O    0.12674   0.45555   0.63599   1.000
    N508    N    0.57404   0.49999   0.64859   1.000
    O509    O    0.62674   0.45556   0.63601   1.000
    O510    O    0.50874   0.54449   0.63609   1.000
    N511    N    0.57404   0.49999   0.14860   1.000
    O512    O    0.50873   0.54449   0.13608   1.000
    O513    O    0.62674   0.45556   0.13602   1.000
    N514    N    0.07404   0.49999   0.14860   1.000
    O515    O    0.00873   0.54449   0.13610   1.000
    O516    O    0.12674   0.45556   0.13602   1.000
    N517    N    0.07404   0.99999   0.64858   1.000
    O518    O    0.12674   0.95555   0.63598   1.000
    O519    O    0.00873   0.04450   0.63608   1.000
loop_
    _geom_bond_atom_site_label_1
    _geom_bond_atom_site_label_2
    _geom_bond_distance
    _geom_bond_site_symmetry_2
    _ccdc_geom_bond_type
    Zr110  O200      0.67712      .   S
    Zr102  O200      0.67712      .   S
    Zr110  O201      0.67533      .   S
    Zr38   O201      0.67533      .   S
    Zr110  O202      1.15255      .   S
    Zr20   O202      1.15255      .   S
    Zr108  O203      0.67744      .   S
    Zr100  O203      0.67744      .   S
    Zr108  O204      0.67533      .   S
    Zr36   O204      0.67533      .   S
    Zr108  O205      1.15239      .   S
    Zr22   O205      1.15239      .   S
    Zr104  O206      0.67744      .   S
    Zr96   O206      0.67744      .   S
    Zr104  O207      0.67526      .   S
    Zr32   O207      0.67526      .   S
    Zr104  O208      1.15246      .   S
    Zr18   O208      1.15246      .   S
    Zr106  O209      0.67744      .   S
    Zr98   O209      0.67744      .   S
    Zr106  O210      0.67526      .   S
    Zr34   O210      0.67526      .   S
    Zr106  O211      1.15262      .   S
    Zr16   O211      1.15262      .   S
    Zr78   O212      0.67755      .   S
    Zr70   O212      0.67755      .   S
    Zr78   O213      0.67532      .   S
    Zr30   O213      0.67532      .   S
    Zr78   O214      1.15186      .   S
    Zr22   O214      1.15186      .   S
    Zr76   O215      0.67743      .   S
    Zr68   O215      0.67743      .   S
    Zr76   O216      0.67531      .   S
    Zr28   O216      0.67531      .   S
    Zr76   O217      1.15196      .   S
    Zr20   O217      1.15196  1_565   S
    Zr74   O218      0.67742      .   S
    Zr66   O218      0.67742      .   S
    Zr74   O219      0.67531      .   S
    Zr26   O219      0.67531      .   S
    Zr74   O220      1.15196      .   S
    Zr18   O220      1.15196      .   S
    Zr72   O221      0.67742      .   S
    Zr64   O221      0.67742      .   S
    Zr72   O222      0.67531      .   S
    Zr24   O222      0.67531      .   S
    Zr72   O223      1.15196      .   S
    Zr16   O223      1.15196  1_565   S
    Zr102  O224      0.66490      .   S
    Zr94   O224      0.66490      .   S
    Zr100  O225      0.65744      .   S
    Zr92   O225      0.65744      .   S
    Zr98   O226      0.65799      .   S
    Zr90   O226      0.65799      .   S
    Zr96   O227      0.65799      .   S
    Zr88   O227      0.65799      .   S
    Zr64   O228      0.65801      .   S
    Zr56   O228      0.65801      .   S
    Zr66   O229      0.65801      .   S
    Zr58   O229      0.65801      .   S
    Zr68   O230      0.65800      .   S
    Zr60   O230      0.65800      .   S
    Zr70   O231      0.65800      .   S
    Zr62   O231      0.65800      .   S
    Zr38   O232      0.67191      .   S
    Zr118  O232      0.67191      .   S
    Zr36   O233      0.67192      .   S
    Zr116  O233      0.67192      .   S
    Zr34   O234      0.67187      .   S
    Zr114  O234      0.67187      .   S
    Zr32   O235      0.67192      .   S
    Zr112  O235      0.67192      .   S
    Zr24   O236      0.67185      .   S
    Zr80   O236      0.67185      .   S
    Zr30   O237      0.67185      .   S
    Zr86   O237      0.67185      .   S
    Zr28   O238      0.67143      .   S
    Zr84   O238      0.67143      .   S
    Zr26   O239      0.67185      .   S
    Zr82   O239      0.67185      .   S
    Zr190  O240      1.30512      .   S
    Zr14   O240      1.30512      .   S
    Zr188  O241      1.30512      .   S
    Zr12   O241      1.30512      .   S
    Zr186  O242      1.30514      .   S
    Zr10   O242      1.30514      .   S
    Zr184  O243      1.30514      .   S
    Zr8    O243      1.30514      .   S
    Zr92   O244      0.68014      .   S
    Zr116  O244      0.68014      .   S
    Zr92   O245      1.23253      .   S
    Zr0    O245      1.23253  1_455   S
    Zr62   O246      0.67987      .   S
    Zr86   O246      0.67987      .   S
    Zr62   O247      1.23309      .   S
    Zr14   O247      1.23309      .   S
    Zr60   O248      0.68006      .   S
    Zr84   O248      0.68006      .   S
    Zr60   O249      1.23310      .   S
    Zr12   O249      1.23310      .   S
    Zr58   O250      0.67986      .   S
    Zr82   O250      0.67986      .   S
    Zr58   O251      1.23317      .   S
    Zr10   O251      1.23317      .   S
    Zr56   O252      0.67985      .   S
    Zr80   O252      0.67985      .   S
    Zr56   O253      1.23318      .   S
    Zr8    O253      1.23318      .   S
    Zr94   O254      0.67982      .   S
    Zr118  O254      0.67982      .   S
    Zr94   O255      1.23234      .   S
    Zr2    O255      1.23234  1_455   S
    Zr90   O256      0.67973      .   S
    Zr114  O256      0.67973      .   S
    Zr90   O257      1.23225      .   S
    Zr6    O257      1.23225      .   S
    Zr88   O258      0.67977      .   S
    Zr112  O258      0.67977      .   S
    Zr88   O259      1.23225      .   S
    Zr4    O259      1.23225      .   S
    Zr84   O260      1.23325      .   S
    Zr0    O260      1.23325  1_455   S
    Zr114  O261      1.23357      .   S
    Zr10   O261      1.23357      .   S
    Zr116  O262      1.23345      .   S
    Zr12   O262      1.23345      .   S
    Zr118  O263      1.23345      .   S
    Zr14   O263      1.23345      .   S
    Zr112  O264      1.23350      .   S
    Zr8    O264      1.23350      .   S
    Zr80   O265      1.23305      .   S
    Zr4    O265      1.23305      .   S
    Zr86   O266      1.23311      .   S
    Zr2    O266      1.23311  1_455   S
    Zr82   O267      1.23305      .   S
    Zr6    O267      1.23305      .   S
    Zr12   O268      1.23349      .   S
    Zr180  O268      1.23349      .   S
    Zr12   O269      1.23318      .   S
    Zr124  O269      1.23318      .   S
    Zr12   O270      1.30514      .   S
    Zr196  O270      1.30514      .   S
    Zr14   O271      1.23349      .   S
    Zr182  O271      1.23349      .   S
    Zr14   O272      1.23317      .   S
    Zr126  O272      1.23317      .   S
    Zr14   O273      1.30514      .   S
    Zr198  O273      1.30514      .   S
    Zr0    O274      1.23304      .   S
    Zr144  O274      1.23304      .   S
    Zr0    O275      1.23223      .   S
    Zr152  O275      1.23223      .   S
    Zr2    O276      1.23295      .   S
    Zr146  O276      1.23295      .   S
    Zr2    O277      1.23223      .   S
    Zr154  O277      1.23223      .   S
    Zr4    O278      1.23302      .   S
    Zr148  O278      1.23302      .   S
    Zr4    O279      1.23224      .   S
    Zr156  O279      1.23224      .   S
    Zr6    O280      1.23303      .   S
    Zr150  O280      1.23303      .   S
    Zr6    O281      1.23224      .   S
    Zr158  O281      1.23224      .   S
    Zr8    O282      1.23344      .   S
    Zr176  O282      1.23344      .   S
    Zr8    O283      1.23311      .   S
    Zr120  O283      1.23311      .   S
    Zr8    O284      1.30514      .   S
    Zr192  O284      1.30514      .   S
    Zr10   O285      1.23343      .   S
    Zr178  O285      1.23343      .   S
    Zr10   O286      1.23311      .   S
    Zr122  O286      1.23311      .   S
    Zr10   O287      1.30515      .   S
    Zr194  O287      1.30515      .   S
    Zr146  O288      0.67975      .   S
    Zr122  O288      0.67975      .   S
    Zr146  O289      0.67206      .   S
    Zr42   O289      0.67206      .   S
    Zr148  O290      0.67985      .   S
    Zr124  O290      0.67985      .   S
    Zr148  O291      0.67186      .   S
    Zr44   O291      0.67186      .   S
    Zr150  O292      0.67986      .   S
    Zr126  O292      0.67986      .   S
    Zr150  O293      0.67185      .   S
    Zr46   O293      0.67185      .   S
    Zr144  O294      0.67989      .   S
    Zr120  O294      0.67989      .   S
    Zr144  O295      0.67179      .   S
    Zr40   O295      0.67179      .   S
    Zr180  O296      0.67981      .   S
    Zr156  O296      0.67981      .   S
    Zr180  O297      0.67192      .   S
    Zr52   O297      0.67192      .   S
    Zr178  O298      0.67981      .   S
    Zr154  O298      0.67981      .   S
    Zr178  O299      0.67192      .   S
    Zr50   O299      0.67192      .   S
    Zr182  O300      0.67981      .   S
    Zr158  O300      0.67981      .   S
    Zr182  O301      0.67193      .   S
    Zr54   O301      0.67193      .   S
    Zr176  O302      0.67982      .   S
    Zr152  O302      0.67982      .   S
    Zr176  O303      0.67192      .   S
    Zr48   O303      0.67192      .   S
    Zr154  O304      0.65798      .   S
    Zr162  O304      0.65798      .   S
    Zr152  O305      0.65797      .   S
    Zr160  O305      0.65797      .   S
    Zr158  O306      0.65798      .   S
    Zr166  O306      0.65798      .   S
    Zr156  O307      0.65798      .   S
    Zr164  O307      0.65798      .   S
    Zr124  O308      0.65802      .   S
    Zr132  O308      0.65802      .   S
    Zr120  O309      0.65801      .   S
    Zr128  O309      0.65801      .   S
    Zr122  O310      0.65802      .   S
    Zr130  O310      0.65802      .   S
    Zr126  O311      0.65803      .   S
    Zr134  O311      0.65803      .   S
    Zr40   O312      0.67531      .   S
    Zr136  O312      0.67531      .   S
    Zr42   O313      0.67530      .   S
    Zr138  O313      0.67530      .   S
    Zr44   O314      0.67530      .   S
    Zr140  O314      0.67530      .   S
    Zr46   O315      0.67530      .   S
    Zr142  O315      0.67530      .   S
    Zr50   O316      0.67531      .   S
    Zr170  O316      0.67531      .   S
    Zr48   O317      0.67531      .   S
    Zr168  O317      0.67531      .   S
    Zr54   O318      0.67531      .   S
    Zr174  O318      0.67531      .   S
    Zr52   O319      0.67531      .   S
    Zr172  O319      0.67531      .   S
    Zr130  O320      0.67742      .   S
    Zr138  O320      0.67742      .   S
    Zr134  O321      0.67741      .   S
    Zr142  O321      0.67741      .   S
    Zr132  O322      0.67741      .   S
    Zr140  O322      0.67741      .   S
    Zr128  O323      0.67742      .   S
    Zr136  O323      0.67742      .   S
    Zr160  O324      0.67744      .   S
    Zr168  O324      0.67744      .   S
    Zr166  O325      0.67744      .   S
    Zr174  O325      0.67744      .   S
    Zr164  O326      0.67744      .   S
    Zr172  O326      0.67744      .   S
    Zr162  O327      0.67744      .   S
    Zr170  O327      0.67744      .   S
    Zr138  O328      1.15210      .   S
    Zr17   O328      1.15210      .   S
    Zr140  O329      1.15194      .   S
    Zr23   O329      1.15194      .   S
    Zr142  O330      1.15210      .   S
    Zr21   O330      1.15210      .   S
    Zr136  O331      1.15194      .   S
    Zr19   O331      1.15194      .   S
    Zr172  O332      1.15242      .   S
    Zr21   O332      1.15242  1_565   S
    Zr170  O333      1.15242      .   S
    Zr19   O333      1.15242      .   S
    Zr168  O334      1.15242      .   S
    Zr17   O334      1.15242  1_565   S
    Zr174  O335      1.15242      .   S
    Zr23   O335      1.15242      .   S
    Zr17   O336      1.15256      .   S
    Zr107  O336      1.15256      .   S
    Zr17   O337      1.15196  1_565   S
    Zr73   O337      1.15196      .   S
    Zr19   O338      1.15240      .   S
    Zr105  O338      1.15240      .   S
    Zr19   O339      1.15196      .   S
    Zr75   O339      1.15196      .   S
    Zr23   O340      1.15240      .   S
    Zr109  O340      1.15240      .   S
    Zr23   O341      1.15191      .   S
    Zr79   O341      1.15191      .   S
    Zr21   O342      1.15256      .   S
    Zr111  O342      1.15256      .   S
    Zr21   O343      1.15190  1_565   S
    Zr77   O343      1.15190      .   S
    Zr107  O344      0.67744      .   S
    Zr99   O344      0.67744      .   S
    Zr107  O345      0.67533      .   S
    Zr35   O345      0.67533      .   S
    Zr109  O346      0.67744      .   S
    Zr101  O346      0.67744      .   S
    Zr109  O347      0.67533      .   S
    Zr37   O347      0.67533      .   S
    Zr105  O348      0.67744      .   S
    Zr97   O348      0.67744      .   S
    Zr105  O349      0.67533      .   S
    Zr33   O349      0.67533      .   S
    Zr111  O350      0.67744      .   S
    Zr103  O350      0.67744      .   S
    Zr111  O351      0.67533      .   S
    Zr39   O351      0.67533      .   S
    Zr77   O352      0.67742      .   S
    Zr69   O352      0.67742      .   S
    Zr77   O353      0.67530      .   S
    Zr29   O353      0.67530      .   S
    Zr79   O354      0.67743      .   S
    Zr71   O354      0.67743      .   S
    Zr79   O355      0.67530      .   S
    Zr31   O355      0.67530      .   S
    Zr73   O356      0.67742      .   S
    Zr65   O356      0.67742      .   S
    Zr73   O357      0.67530      .   S
    Zr25   O357      0.67530      .   S
    Zr75   O358      0.67742      .   S
    Zr67   O358      0.67742      .   S
    Zr75   O359      0.67530      .   S
    Zr27   O359      0.67530      .   S
    Zr97   O360      0.65799      .   S
    Zr89   O360      0.65799      .   S
    Zr101  O361      0.65800      .   S
    Zr93   O361      0.65800      .   S
    Zr103  O362      0.65800      .   S
    Zr95   O362      0.65800      .   S
    Zr99   O363      0.65799      .   S
    Zr91   O363      0.65799      .   S
    Zr71   O364      0.65805      .   S
    Zr63   O364      0.65805      .   S
    Zr69   O365      0.65805      .   S
    Zr61   O365      0.65805      .   S
    Zr67   O366      0.65801      .   S
    Zr59   O366      0.65801      .   S
    Zr65   O367      0.65801      .   S
    Zr57   O367      0.65801      .   S
    Zr39   O368      0.67192      .   S
    Zr119  O368      0.67192      .   S
    Zr37   O369      0.67192      .   S
    Zr117  O369      0.67192      .   S
    Zr33   O370      0.67192      .   S
    Zr113  O370      0.67192      .   S
    Zr35   O371      0.67193      .   S
    Zr115  O371      0.67193      .   S
    Zr31   O372      0.67185      .   S
    Zr87   O372      0.67185      .   S
    Zr29   O373      0.67184      .   S
    Zr85   O373      0.67184      .   S
    Zr27   O374      0.67150      .   S
    Zr83   O374      0.67150      .   S
    Zr25   O375      0.67150      .   S
    Zr81   O375      0.67150      .   S
    Zr185  O376      1.30534      .   S
    Zr9    O376      1.30534      .   S
    Zr187  O377      1.30514      .   S
    Zr11   O377      1.30514      .   S
    Zr189  O378      1.30515      .   S
    Zr13   O378      1.30515      .   S
    Zr191  O379      1.30514      .   S
    Zr15   O379      1.30514      .   S
    Zr63   O380      0.67989      .   S
    Zr87   O380      0.67989      .   S
    Zr63   O381      1.23310      .   S
    Zr15   O381      1.23310      .   S
    Zr59   O382      0.68003      .   S
    Zr83   O382      0.68003      .   S
    Zr59   O383      1.23311      .   S
    Zr11   O383      1.23311      .   S
    Zr61   O384      0.67990      .   S
    Zr85   O384      0.67990      .   S
    Zr61   O385      1.23310      .   S
    Zr13   O385      1.23310      .   S
    Zr57   O386      0.68002      .   S
    Zr81   O386      0.68002      .   S
    Zr57   O387      1.23311      .   S
    Zr9    O387      1.23311      .   S
    Zr95   O388      0.67983      .   S
    Zr119  O388      0.67983      .   S
    Zr95   O389      1.23231      .   S
    Zr3    O389      1.23231  1_455   S
    Zr93   O390      0.67983      .   S
    Zr117  O390      0.67983      .   S
    Zr93   O391      1.23231      .   S
    Zr1    O391      1.23231  1_455   S
    Zr89   O392      0.67983      .   S
    Zr113  O392      0.67983      .   S
    Zr89   O393      1.23225      .   S
    Zr5    O393      1.23225      .   S
    Zr91   O394      0.67983      .   S
    Zr115  O394      0.67983      .   S
    Zr91   O395      1.23225      .   S
    Zr7    O395      1.23225      .   S
    Zr113  O396      1.23342      .   S
    Zr9    O396      1.23342      .   S
    Zr83   O397      1.23314      .   S
    Zr7    O397      1.23314      .   S
    Zr81   O398      1.23314      .   S
    Zr5    O398      1.23314      .   S
    Zr115  O399      1.23342      .   S
    Zr11   O399      1.23342      .   S
    Zr117  O400      1.23343      .   S
    Zr13   O400      1.23343      .   S
    Zr119  O401      1.23344      .   S
    Zr15   O401      1.23344      .   S
    Zr85   O402      1.23311      .   S
    Zr1    O402      1.23311  1_455   S
    Zr87   O403      1.23310      .   S
    Zr3    O403      1.23310  1_455   S
    Zr1    O404      1.23304      .   S
    Zr145  O404      1.23304      .   S
    Zr1    O405      1.23226      .   S
    Zr153  O405      1.23226      .   S
    Zr3    O406      1.23305      .   S
    Zr147  O406      1.23305      .   S
    Zr3    O407      1.23226      .   S
    Zr155  O407      1.23226      .   S
    Zr5    O408      1.23305      .   S
    Zr149  O408      1.23305      .   S
    Zr5    O409      1.23224      .   S
    Zr157  O409      1.23224      .   S
    Zr7    O410      1.23305      .   S
    Zr151  O410      1.23305      .   S
    Zr7    O411      1.23224      .   S
    Zr159  O411      1.23224      .   S
    Zr9    O412      1.23351      .   S
    Zr177  O412      1.23351      .   S
    Zr9    O413      1.23317      .   S
    Zr121  O413      1.23317      .   S
    Zr9    O414      1.30514      .   S
    Zr193  O414      1.30514      .   S
    Zr15   O415      1.23303      .   S
    Zr183  O415      1.23303      .   S
    Zr15   O416      1.23311      .   S
    Zr127  O416      1.23311      .   S
    Zr15   O417      1.30514      .   S
    Zr199  O417      1.30514      .   S
    Zr13   O418      1.23344      .   S
    Zr181  O418      1.23344      .   S
    Zr13   O419      1.23304      .   S
    Zr125  O419      1.23304      .   S
    Zr13   O420      1.30513      .   S
    Zr197  O420      1.30513      .   S
    Zr11   O421      1.23350      .   S
    Zr179  O421      1.23350      .   S
    Zr11   O422      1.23318      .   S
    Zr123  O422      1.23318      .   S
    Zr11   O423      1.30515      .   S
    Zr195  O423      1.30515      .   S
    Zr183  O424      0.68008      .   S
    Zr159  O424      0.68008      .   S
    Zr183  O425      0.67223      .   S
    Zr55   O425      0.67223      .   S
    Zr151  O426      0.67989      .   S
    Zr127  O426      0.67989      .   S
    Zr151  O427      0.67186      .   S
    Zr47   O427      0.67186      .   S
    Zr145  O428      0.67986      .   S
    Zr121  O428      0.67986      .   S
    Zr145  O429      0.67185      .   S
    Zr41   O429      0.67185      .   S
    Zr149  O430      0.67992      .   S
    Zr125  O430      0.67992      .   S
    Zr149  O431      0.67185      .   S
    Zr45   O431      0.67185      .   S
    Zr147  O432      0.67985      .   S
    Zr123  O432      0.67985      .   S
    Zr147  O433      0.67186      .   S
    Zr43   O433      0.67186      .   S
    Zr181  O434      0.67980      .   S
    Zr157  O434      0.67980      .   S
    Zr181  O435      0.67192      .   S
    Zr53   O435      0.67192      .   S
    Zr179  O436      0.67982      .   S
    Zr155  O436      0.67982      .   S
    Zr179  O437      0.67192      .   S
    Zr51   O437      0.67192      .   S
    Zr177  O438      0.67981      .   S
    Zr153  O438      0.67981      .   S
    Zr177  O439      0.67192      .   S
    Zr49   O439      0.67192      .   S
    Zr157  O440      0.65805      .   S
    Zr165  O440      0.65805      .   S
    Zr159  O441      0.65804      .   S
    Zr167  O441      0.65804      .   S
    Zr125  O442      0.65807      .   S
    Zr133  O442      0.65807      .   S
    Zr127  O443      0.65802      .   S
    Zr135  O443      0.65802      .   S
    Zr155  O444      0.65797      .   S
    Zr163  O444      0.65797      .   S
    Zr153  O445      0.65797      .   S
    Zr161  O445      0.65797      .   S
    Zr123  O446      0.65801      .   S
    Zr131  O446      0.65801      .   S
    Zr121  O447      0.65802      .   S
    Zr129  O447      0.65802      .   S
    Zr45   O448      0.67531      .   S
    Zr141  O448      0.67531      .   S
    Zr43   O449      0.67531      .   S
    Zr139  O449      0.67531      .   S
    Zr47   O450      0.67526      .   S
    Zr143  O450      0.67526      .   S
    Zr41   O451      0.67531      .   S
    Zr137  O451      0.67531      .   S
    Zr55   O452      0.67478      .   S
    Zr175  O452      0.67478      .   S
    Zr53   O453      0.67478      .   S
    Zr173  O453      0.67478      .   S
    Zr51   O454      0.67531      .   S
    Zr171  O454      0.67531      .   S
    Zr49   O455      0.67531      .   S
    Zr169  O455      0.67531      .   S
    Zr133  O456      0.67748      .   S
    Zr141  O456      0.67748      .   S
    Zr135  O457      0.67709      .   S
    Zr143  O457      0.67709      .   S
    Zr131  O458      0.67743      .   S
    Zr139  O458      0.67743      .   S
    Zr129  O459      0.67742      .   S
    Zr137  O459      0.67742      .   S
    Zr161  O460      0.67744      .   S
    Zr169  O460      0.67744      .   S
    Zr163  O461      0.67744      .   S
    Zr171  O461      0.67744      .   S
    Zr165  O462      0.67740      .   S
    Zr173  O462      0.67740      .   S
    Zr167  O463      0.67741      .   S
    Zr175  O463      0.67741      .   S
    Zr143  O464      1.15252      .   S
    Zr20   O464      1.15252  1_554   S
    Zr141  O465      1.15202      .   S
    Zr22   O465      1.15202  1_554   S
    Zr139  O466      1.15218      .   S
    Zr16   O466      1.15218  1_554   S
    Zr137  O467      1.15203      .   S
    Zr18   O467      1.15203  1_554   S
    Zr175  O468      1.15318      .   S
    Zr22   O468      1.15318  1_554   S
    Zr173  O469      1.15317      .   S
    Zr20   O469      1.15317  1_564   S
    Zr169  O470      1.15259      .   S
    Zr16   O470      1.15259  1_564   S
    Zr171  O471      1.15259      .   S
    Zr18   O471      1.15259  1_554   S
    N472   O473      1.18353  1_565   S
    Zr49   O473      1.87735      .   S
    N472   O474      1.18344      .   S
    Zr47   O474      1.87714      .   S
    N475   O476      1.18344      .   S
    Zr41   O476      1.87719  1_455   S
    N475   O477      1.18342      .   S
    Zr55   O477      1.87723      .   S
    N478   O479      1.18343      .   S
    Zr51   O479      1.87726      .   S
    N478   O480      1.18336      .   S
    Zr45   O480      1.87709      .   S
    N481   O482      1.18348      .   S
    Zr39   O482      1.87728      .   S
    N481   O483      1.18345  1_565   S
    Zr25   O483      1.87719      .   S
    N484   O485      1.18317      .   S
    Zr38   O485      1.87706      .   S
    N484   O486      1.18349  1_565   S
    Zr24   O486      1.87743      .   S
    N487   O488      1.18365  1_565   S
    Zr52   O488      1.87747      .   S
    N487   O489      1.18349      .   S
    Zr42   O489      1.87720  1_455   S
    N490   O491      1.18349  1_565   S
    Zr48   O491      1.87732      .   S
    N490   O492      1.18346      .   S
    Zr46   O492      1.87714      .   S
    N493   O494      1.18343      .   S
    Zr50   O494      1.87726      .   S
    N493   O495      1.18338      .   S
    Zr44   O495      1.87706      .   S
    N496   O497      1.18352      .   S
    Zr43   O497      1.87725  1_455   S
    N496   O498      1.18350  1_565   S
    Zr53   O498      1.87729      .   S
    N499   O500      1.18342      .   S
    Zr54   O500      1.87726      .   S
    N499   O501      1.18344      .   S
    Zr40   O501      1.87721  1_455   S
    N502   O503      1.18350      .   S
    Zr34   O503      1.87734      .   S
    N502   O504      1.18353  1_565   S
    Zr28   O504      1.87727  1_655   S
    N505   O506      1.18346      .   S
    Zr31   O506      1.87720  1_655   S
    N505   O507      1.18354      .   S
    Zr33   O507      1.87706      .   S
    N508   O509      1.18340      .   S
    Zr37   O509      1.87721      .   S
    N508   O510      1.18337      .   S
    Zr27   O510      1.87712      .   S
    N511   O512      1.18334      .   S
    Zr26   O512      1.87722      .   S
    N511   O513      1.18336      .   S
    Zr36   O513      1.87721      .   S
    N514   O515      1.18345      .   S
    Zr30   O515      1.87723  1_655   S
    N514   O516      1.18339      .   S
    Zr32   O516      1.87725      .   S
    N517   O518      1.18358      .   S
    Zr35   O518      1.87710      .   S
    N517   O519      1.18355  1_565   S
    Zr29   O519      1.87729  1_655   S
