# CIF file generated by openbabel 2.4.90, see http://openbabel.sf.net
data_I
_chemical_name_common ''
_cell_length_a 19.824
_cell_length_b 20.617
_cell_length_c 13.36
_cell_angle_alpha 74.154
_cell_angle_beta 79.598
_cell_angle_gamma 61.879
_space_group_name_H-M_alt 'P 1'
_space_group_name_Hall 'P 1'
loop_
    _symmetry_equiv_pos_as_xyz
    x,y,z
loop_
    _atom_site_label
    _atom_site_type_symbol
    _atom_site_fract_x
    _atom_site_fract_y
    _atom_site_fract_z
    _atom_site_occupancy
    H0      H    0.34671   0.34576   0.01300   1.000
    H1      H    0.34670   0.84577   0.01300   1.000
    H2      H    0.84670   0.34576   0.01300   1.000
    H3      H    0.84670   0.84577   0.01300   1.000
    H4      H    0.33987   0.06001   0.00000   1.000
    H5      H    0.33987   0.56002   0.00000   1.000
    H6      H    0.83987   0.06001   0.00000   1.000
    H7      H    0.83986   0.56002   0.00000   1.000
    H8      H    0.07515   0.39776   0.67861   1.000
    H9      H    0.07515   0.89777   0.67861   1.000
    H10     H    0.57515   0.39776   0.67861   1.000
    H11     H    0.57514   0.89777   0.67861   1.000
    H12     H    0.06139   0.35752   0.00000   1.000
    H13     H    0.06138   0.85753   0.00000   1.000
    H14     H    0.56138   0.35752   0.00000   1.000
    H15     H    0.56138   0.85753   0.00000   1.000
    H16     H    0.37571   0.38252   0.68610   1.000
    H17     H    0.37571   0.88253   0.68610   1.000
    H18     H    0.87571   0.38252   0.68614   1.000
    H19     H    0.87570   0.88253   0.68610   1.000
    H20     H    0.35561   0.10733   0.68109   1.000
    H21     H    0.35561   0.60734   0.68109   1.000
    H22     H    0.85561   0.10733   0.68109   1.000
    H23     H    0.85560   0.60734   0.68109   1.000
    H24     H    0.15278   0.15493   0.98680   1.000
    H25     H    0.15278   0.65494   0.98680   1.000
    H26     H    0.65277   0.15493   0.98687   1.000
    H27     H    0.65277   0.65494   0.98680   1.000
    H28     H    0.15951   0.44059   0.99050   1.000
    H29     H    0.15951   0.94060   0.99050   1.000
    H30     H    0.65951   0.44059   0.99050   1.000
    H31     H    0.65951   0.94060   0.99050   1.000
    H32     H    0.42444   0.10268   0.32111   1.000
    H33     H    0.42444   0.60269   0.32110   1.000
    H34     H    0.92443   0.10268   0.32111   1.000
    H35     H    0.92443   0.60269   0.32110   1.000
    H36     H    0.43804   0.14334   0.99268   1.000
    H37     H    0.43804   0.64335   0.99268   1.000
    H38     H    0.93804   0.14334   0.99268   1.000
    H39     H    0.93804   0.64335   0.99268   1.000
    H40     H    0.12404   0.11783   0.31381   1.000
    H41     H    0.12404   0.61784   0.31381   1.000
    H42     H    0.62404   0.11783   0.31381   1.000
    H43     H    0.62404   0.61784   0.31381   1.000
    H44     H    0.14392   0.39325   0.31892   1.000
    H45     H    0.14392   0.89326   0.31892   1.000
    H46     H    0.64392   0.39325   0.31892   1.000
    H47     H    0.64391   0.89326   0.31892   1.000
    C48     C    0.08890   0.37750   0.75976   1.000
    C49     C    0.08890   0.87751   0.75976   1.000
    C50     C    0.58890   0.37750   0.75976   1.000
    C51     C    0.58890   0.87751   0.75976   1.000
    C52     C    0.08315   0.35506   0.92676   1.000
    C53     C    0.08314   0.85507   0.92676   1.000
    C54     C    0.58314   0.35506   0.92676   1.000
    C55     C    0.58314   0.85507   0.92676   1.000
    C56     C    0.36037   0.36343   0.76690   1.000
    C57     C    0.36036   0.86344   0.76690   1.000
    C58     C    0.86036   0.36343   0.76690   1.000
    C59     C    0.86036   0.86344   0.76690   1.000
    C60     C    0.34496   0.34437   0.93318   1.000
    C61     C    0.34496   0.84438   0.93318   1.000
    C62     C    0.84496   0.34437   0.93318   1.000
    C63     C    0.84496   0.84438   0.93318   1.000
    C64     C    0.34353   0.11304   0.76170   1.000
    C65     C    0.34353   0.61305   0.76170   1.000
    C66     C    0.84353   0.11304   0.76174   1.000
    C67     C    0.84352   0.61305   0.76174   1.000
    C68     C    0.33471   0.08966   0.92860   1.000
    C69     C    0.33471   0.58967   0.92860   1.000
    C70     C    0.83471   0.08966   0.92860   1.000
    C71     C    0.83471   0.58967   0.92860   1.000
    C72     C    0.29796   0.37131   0.39861   1.000
    C73     C    0.29796   0.87132   0.39861   1.000
    C74     C    0.79796   0.37131   0.39861   1.000
    C75     C    0.79795   0.87132   0.39861   1.000
    N76     N    0.81344   0.80872   0.90411   1.000
    N77     N    0.37507   0.37992   0.84984   1.000
    N78     N    0.37507   0.87993   0.84984   1.000
    N79     N    0.87506   0.37992   0.84984   1.000
    C80     C    0.34922   0.31258   0.34991   1.000
    C81     C    0.34922   0.81259   0.34991   1.000
    C82     C    0.84922   0.31258   0.34991   1.000
    C83     C    0.84921   0.81259   0.34991   1.000
    C84     C    0.28975   0.44356   0.34946   1.000
    C85     C    0.28975   0.94357   0.34946   1.000
    C86     C    0.78975   0.44356   0.34946   1.000
    C87     C    0.78975   0.94357   0.34946   1.000
    C88     C    0.39062   0.32551   0.25718   1.000
    C89     C    0.39062   0.82552   0.25718   1.000
    C90     C    0.89062   0.32551   0.25718   1.000
    C91     C    0.89061   0.82552   0.25718   1.000
    C92     C    0.33196   0.45598   0.25741   1.000
    C93     C    0.33196   0.95599   0.25741   1.000
    C94     C    0.83196   0.45598   0.25741   1.000
    C95     C    0.83195   0.95599   0.25741   1.000
    C96     C    0.38360   0.39732   0.20976   1.000
    C97     C    0.38360   0.89734   0.20976   1.000
    C98     C    0.88360   0.39732   0.20976   1.000
    C99     C    0.88360   0.89734   0.20976   1.000
    C100    C    0.41065   0.12304   0.23990   1.000
    C101    C    0.41064   0.62305   0.23998   1.000
    C102    C    0.91064   0.12304   0.23990   1.000
    C103    C    0.91064   0.62305   0.23998   1.000
    C104    C    0.41631   0.14570   0.07296   1.000
    C105    C    0.41631   0.64571   0.07296   1.000
    C106    C    0.91631   0.14570   0.07296   1.000
    C107    C    0.91631   0.64571   0.07296   1.000
    C108    C    0.13931   0.13701   0.23305   1.000
    C109    C    0.13930   0.63702   0.23305   1.000
    C110    C    0.63930   0.13701   0.23305   1.000
    C111    C    0.63930   0.63702   0.23305   1.000
    C112    C    0.15457   0.15625   0.06675   1.000
    C113    C    0.15456   0.65626   0.06675   1.000
    C114    C    0.65456   0.15625   0.06675   1.000
    C115    C    0.65456   0.65626   0.06675   1.000
    C116    C    0.15594   0.38755   0.23826   1.000
    C117    C    0.15594   0.88756   0.23826   1.000
    C118    C    0.65593   0.38755   0.23826   1.000
    C119    C    0.65593   0.88756   0.23826   1.000
    C120    C    0.16468   0.41096   0.07137   1.000
    C121    C    0.16468   0.91097   0.07137   1.000
    C122    C    0.66467   0.41095   0.07137   1.000
    C123    C    0.66467   0.91096   0.07137   1.000
    C124    C    0.20196   0.12877   0.60134   1.000
    C125    C    0.20195   0.62878   0.60134   1.000
    C126    C    0.70195   0.12877   0.60134   1.000
    C127    C    0.70195   0.62878   0.60134   1.000
    C128    C    0.15071   0.18750   0.65005   1.000
    C129    C    0.15071   0.68751   0.65005   1.000
    C130    C    0.65071   0.18750   0.65005   1.000
    C131    C    0.65071   0.68751   0.65005   1.000
    C132    C    0.21017   0.05652   0.65050   1.000
    C133    C    0.21016   0.55653   0.65050   1.000
    C134    C    0.71016   0.05652   0.65050   1.000
    C135    C    0.71016   0.55653   0.65050   1.000
    C136    C    0.10931   0.17458   0.74278   1.000
    C137    C    0.10931   0.67459   0.74278   1.000
    C138    C    0.60931   0.17458   0.74278   1.000
    C139    C    0.60930   0.67459   0.74278   1.000
    C140    C    0.16795   0.04411   0.74255   1.000
    C141    C    0.16795   0.54412   0.74255   1.000
    C142    C    0.66795   0.04411   0.74255   1.000
    C143    C    0.66795   0.54412   0.74255   1.000
    C144    C    0.11629   0.10277   0.79018   1.000
    C145    C    0.11629   0.60278   0.79018   1.000
    C146    C    0.61629   0.10277   0.79018   1.000
    C147    C    0.61629   0.60278   0.79018   1.000
    N148    N    0.16022   0.33335   0.78943   1.000
    N149    N    0.16022   0.83336   0.78943   1.000
    N150    N    0.66022   0.33335   0.78943   1.000
    N151    N    0.66021   0.83336   0.78943   1.000
    N152    N    0.15638   0.31888   0.89706   1.000
    N153    N    0.15638   0.81889   0.89706   1.000
    N154    N    0.65638   0.31888   0.89706   1.000
    N155    N    0.65638   0.81889   0.89706   1.000
    N156    N    0.03841   0.39262   0.84370   1.000
    N157    N    0.03841   0.89263   0.84370   1.000
    N158    N    0.53840   0.39262   0.84370   1.000
    N159    N    0.53840   0.89263   0.84370   1.000
    N160    N    0.32316   0.32106   0.79684   1.000
    N161    N    0.32316   0.82107   0.79684   1.000
    N162    N    0.82315   0.32106   0.79684   1.000
    N163    N    0.82315   0.82107   0.79684   1.000
    N164    N    0.31344   0.30871   0.90411   1.000
    N165    N    0.31344   0.80872   0.90411   1.000
    N166    N    0.81344   0.30871   0.90411   1.000
    N167    N    0.87506   0.87993   0.84984   1.000
    N168    N    0.30640   0.17918   0.79018   1.000
    N169    N    0.30639   0.67919   0.79018   1.000
    N170    N    0.80639   0.17918   0.79018   1.000
    N171    N    0.80639   0.67919   0.79018   1.000
    N172    N    0.30076   0.16409   0.89807   1.000
    N173    N    0.30076   0.66410   0.89807   1.000
    N174    N    0.80075   0.16409   0.89807   1.000
    N175    N    0.80075   0.66410   0.89807   1.000
    N176    N    0.36229   0.05494   0.84652   1.000
    N177    N    0.36229   0.55495   0.84652   1.000
    N178    N    0.86228   0.05494   0.84652   1.000
    N179    N    0.86228   0.55495   0.84652   1.000
    N180    N    0.33931   0.16724   0.21038   1.000
    N181    N    0.33931   0.66725   0.21038   1.000
    N182    N    0.83931   0.16724   0.21038   1.000
    N183    N    0.83931   0.66725   0.21038   1.000
    N184    N    0.34309   0.18186   0.10275   1.000
    N185    N    0.34309   0.68187   0.10275   1.000
    N186    N    0.84309   0.18186   0.10275   1.000
    N187    N    0.84308   0.68187   0.10275   1.000
    N188    N    0.46110   0.10803   0.15598   1.000
    N189    N    0.46109   0.60804   0.15598   1.000
    N190    N    0.96109   0.10803   0.15598   1.000
    N191    N    0.96109   0.60804   0.15598   1.000
    N192    N    0.17646   0.17942   0.20314   1.000
    N193    N    0.17646   0.67943   0.20314   1.000
    N194    N    0.67646   0.17942   0.20314   1.000
    N195    N    0.67645   0.67943   0.20314   1.000
    N196    N    0.18610   0.19188   0.09586   1.000
    N197    N    0.18610   0.69189   0.09586   1.000
    N198    N    0.68609   0.19188   0.09586   1.000
    N199    N    0.68609   0.69189   0.09586   1.000
    N200    N    0.12454   0.12061   0.15007   1.000
    N201    N    0.12454   0.62063   0.15007   1.000
    N202    N    0.62453   0.12061   0.15007   1.000
    N203    N    0.62453   0.62062   0.15007   1.000
    N204    N    0.19304   0.32141   0.20983   1.000
    N205    N    0.19304   0.82142   0.20983   1.000
    N206    N    0.69304   0.32141   0.20983   1.000
    N207    N    0.69304   0.82142   0.20983   1.000
    N208    N    0.19863   0.33653   0.10194   1.000
    N209    N    0.19862   0.83653   0.10194   1.000
    N210    N    0.69862   0.33653   0.10194   1.000
    N211    N    0.69862   0.83653   0.10194   1.000
    N212    N    0.13715   0.44567   0.15349   1.000
    N213    N    0.13714   0.94568   0.15349   1.000
    N214    N    0.63714   0.44566   0.15349   1.000
    N215    N    0.63714   0.94568   0.15349   1.000
    F216    F    0.35839   0.24157   0.39186   1.000
    F217    F    0.35839   0.74158   0.39186   1.000
    F218    F    0.85839   0.24157   0.39186   1.000
    F219    F    0.85839   0.74158   0.39186   1.000
    F220    F    0.24127   0.50315   0.39213   1.000
    F221    F    0.24127   0.00000   0.39213   1.000
    F222    F    0.74127   0.50315   0.39213   1.000
    F223    F    0.74126   0.00000   0.39213   1.000
    F224    F    0.43910   0.26652   0.21240   1.000
    F225    F    0.43910   0.76653   0.21240   1.000
    F226    F    0.93909   0.26652   0.21240   1.000
    F227    F    0.93909   0.76653   0.21240   1.000
    F228    F    0.32226   0.02725   0.21265   1.000
    F229    F    0.32225   0.52726   0.21265   1.000
    F230    F    0.82225   0.02725   0.21265   1.000
    F231    F    0.82225   0.52726   0.21265   1.000
    F232    F    0.14159   0.25849   0.60813   1.000
    F233    F    0.14159   0.75850   0.60813   1.000
    F234    F    0.64158   0.25849   0.60813   1.000
    F235    F    0.64158   0.75850   0.60813   1.000
    F236    F    0.25867   0.99692   0.60787   1.000
    F237    F    0.25867   0.49693   0.60787   1.000
    F238    F    0.75867   0.99692   0.60787   1.000
    F239    F    0.75866   0.49693   0.60787   1.000
    F240    F    0.06087   0.23354   0.78759   1.000
    F241    F    0.06086   0.73355   0.78759   1.000
    F242    F    0.56086   0.23354   0.78759   1.000
    F243    F    0.56086   0.73355   0.78759   1.000
    F244    F    0.17770   0.47284   0.78735   1.000
    F245    F    0.17770   0.97285   0.78735   1.000
    F246    F    0.67770   0.47284   0.78735   1.000
    F247    F    0.67770   0.97285   0.78735   1.000
loop_
    _geom_bond_atom_site_label_1
    _geom_bond_atom_site_label_2
    _geom_bond_distance
    _geom_bond_site_symmetry_2
    _ccdc_geom_bond_type
    H12    C52       1.00009  1_554   S
    H13    C53       1.00009  1_554   S
    H14    C54       1.00009  1_554   S
    H15    C55       1.00009  1_554   S
    H7     C71       0.97567  1_554   S
    H6     C70       0.97567  1_554   S
    H5     C69       0.97567  1_554   S
    H4     C68       0.97567  1_554   S
    H3     C63       1.08175  1_554   S
    H2     C62       1.08175  1_554   S
    H1     C61       1.08175  1_554   S
    H0     C60       1.08175  1_554   S
    C115   N199      1.32596      .   S
    C115   N203      1.36369      .   S
    C115   H27       1.08324  1_554   S
    C114   N198      1.32595      .   S
    C114   N202      1.36370      .   S
    C114   H26       1.08231  1_554   S
    C113   N197      1.32596      .   S
    C113   N201      1.36369      .   S
    C113   H25       1.08324  1_554   S
    C112   N196      1.32598      .   S
    C112   N200      1.36369      .   S
    C112   H24       1.08324  1_554   S
    C123   N211      1.32588      .   S
    C123   N215      1.36310      .   S
    C123   H31       1.08241  1_554   S
    C122   N210      1.32587      .   S
    C122   N214      1.36310      .   S
    C122   H30       1.08242  1_554   S
    C121   N209      1.32588      .   S
    C121   N213      1.36310      .   S
    C121   H29       1.08241  1_554   S
    C120   N208      1.32588      .   S
    C120   N212      1.36310      .   S
    C120   H28       1.08241  1_554   S
    C104   N184      1.32460      .   S
    C104   N188      1.36260      .   S
    C104   H36       1.08635  1_554   S
    C107   N187      1.32461      .   S
    C107   N191      1.36261      .   S
    C107   H39       1.08635  1_554   S
    C106   N186      1.32460      .   S
    C106   N190      1.36260      .   S
    C106   H38       1.08635  1_554   S
    C105   N185      1.32460      .   S
    C105   N189      1.36260      .   S
    C105   H37       1.08635  1_554   S
    N199   N195      1.37951      .   S
    N198   N194      1.37951      .   S
    N197   N193      1.37951      .   S
    N196   N192      1.37951      .   S
    N208   N204      1.38443      .   S
    N209   N205      1.38443      .   S
    N210   N206      1.38442      .   S
    N211   N207      1.38443      .   S
    N187   N183      1.38197      .   S
    N184   N180      1.38197      .   S
    N185   N181      1.38197      .   S
    N186   N182      1.38197      .   S
    N200   C108      1.35799      .   S
    N201   C109      1.35799      .   S
    N202   C110      1.35799      .   S
    N203   C111      1.35799      .   S
    N213   C117      1.35923      .   S
    N214   C118      1.35922      .   S
    N215   C119      1.35922      .   S
    N212   C116      1.35923      .   S
    N191   C103      1.35943      .   S
    N190   C102      1.35863      .   S
    N189   C101      1.35943      .   S
    N188   C100      1.35862      .   S
    N195   C111      1.33294      .   S
    N194   C110      1.33296      .   S
    N193   C109      1.33294      .   S
    N192   C108      1.33294      .   S
    C99    C91       1.39223      .   S
    C99    C95       1.39062      .   S
    C98    C90       1.39223      .   S
    C98    C94       1.39063      .   S
    C97    C89       1.39223      .   S
    C97    C93       1.39063      .   S
    C96    C88       1.39223      .   S
    C96    C92       1.39062      .   S
    N205   C117      1.33458      .   S
    N207   C119      1.33459      .   S
    N204   C116      1.33458      .   S
    N206   C118      1.33459      .   S
    N180   C100      1.33266      .   S
    N181   C101      1.33298      .   S
    N182   C102      1.33266      .   S
    N183   C103      1.33298      .   S
    F227   C91       1.35958      .   S
    F226   C90       1.35958      .   S
    F225   C89       1.35958      .   S
    F224   C88       1.35958      .   S
    F231   C94       1.35983      .   S
    F230   C95       1.35949  1_545   S
    F229   C92       1.35983      .   S
    F228   C93       1.35950  1_545   S
    C111   H43       1.08351      .   S
    C108   H40       1.08351      .   S
    C109   H41       1.08351      .   S
    C110   H42       1.08351      .   S
    C117   H45       1.08715      .   S
    C118   H46       1.08715      .   S
    C119   H47       1.08715      .   S
    C116   H44       1.08715      .   S
    C100   H32       1.08550      .   S
    C102   H34       1.08550      .   S
    C103   H35       1.08437      .   S
    C101   H33       1.08438      .   S
    C88    C80       1.39217      .   S
    C89    C81       1.39217      .   S
    C90    C82       1.39217      .   S
    C91    C83       1.39217      .   S
    C95    C87       1.39155      .   S
    C94    C86       1.39155      .   S
    C93    C85       1.39154      .   S
    C92    C84       1.39155      .   S
    C87    F223      1.30860  1_565   S
    C87    C75       1.39734      .   S
    C86    F222      1.35256      .   S
    C86    C74       1.39734      .   S
    C85    F221      1.30860  1_565   S
    C85    C73       1.39735      .   S
    C84    F220      1.35256      .   S
    C84    C72       1.39734      .   S
    C80    F216      1.35212      .   S
    C80    C72       1.39776      .   S
    C82    F218      1.35213      .   S
    C82    C74       1.39776      .   S
    C83    F219      1.35212      .   S
    C83    C75       1.39776      .   S
    C81    F217      1.35213      .   S
    C81    C73       1.39776      .   S
    C127   C131      1.39768      .   S
    C127   C135      1.39732      .   S
    C124   C128      1.39768      .   S
    C124   C132      1.39733      .   S
    C125   C129      1.39768      .   S
    C125   C133      1.39733      .   S
    C126   C130      1.39768      .   S
    C126   C134      1.39733      .   S
    F237   C133      1.35258      .   S
    F238   C134      1.35258  1_565   S
    F239   C135      1.35258      .   S
    F236   C132      1.35258  1_565   S
    F235   C131      1.35201      .   S
    F234   C130      1.35201      .   S
    F233   C129      1.35201      .   S
    F232   C128      1.35201      .   S
    C131   C139      1.39217      .   S
    C130   C138      1.39218      .   S
    C129   C137      1.39217      .   S
    C128   C136      1.39218      .   S
    C135   C143      1.39161      .   S
    C132   C140      1.39160      .   S
    C133   C141      1.39159      .   S
    C134   C142      1.39160      .   S
    H11    C51       1.08456      .   S
    H10    C50       1.08456      .   S
    H9     C49       1.08456      .   S
    H8     C48       1.08456      .   S
    H20    C64       1.08656      .   S
    H21    C65       1.08656      .   S
    H22    C66       1.08708      .   S
    H23    C67       1.08708      .   S
    H19    C59       1.08397      .   S
    H17    C57       1.08396      .   S
    H16    C56       1.08397      .   S
    H18    C58       1.08352      .   S
    C143   F246      1.35977      .   S
    C143   C147      1.39061      .   S
    C142   F247      1.35943  1_545   S
    C142   C146      1.39061      .   S
    C141   F244      1.35978      .   S
    C141   C145      1.39060      .   S
    C140   F245      1.35944  1_545   S
    C140   C144      1.39059      .   S
    C136   F240      1.35939      .   S
    C136   C144      1.39219      .   S
    C137   F241      1.35939      .   S
    C137   C145      1.39219      .   S
    C138   F242      1.35938      .   S
    C138   C146      1.39219      .   S
    C139   F243      1.35939      .   S
    C139   C147      1.39219      .   S
    C51    N151      1.33295      .   S
    C51    N159      1.35946      .   S
    C50    N150      1.33295      .   S
    C50    N158      1.35946      .   S
    C49    N149      1.33294      .   S
    C49    N157      1.35946      .   S
    C48    N148      1.33295      .   S
    C48    N156      1.35946      .   S
    C64    N168      1.33479      .   S
    C64    N176      1.35949      .   S
    C65    N169      1.33479      .   S
    C65    N177      1.35949      .   S
    C66    N170      1.33455      .   S
    C66    N178      1.35915      .   S
    C67    N171      1.33455      .   S
    C67    N179      1.35915      .   S
    C58    N162      1.33297      .   S
    C58    N79       1.35800      .   S
    C59    N163      1.33297      .   S
    C59    N167      1.35800      .   S
    C57    N161      1.33297      .   S
    C57    N78       1.35798      .   S
    C56    N160      1.33297      .   S
    C56    N77       1.35800      .   S
    N151   N155      1.38205      .   S
    N150   N154      1.38205      .   S
    N149   N153      1.38205      .   S
    N148   N152      1.38205      .   S
    N171   N175      1.38444      .   S
    N168   N172      1.38444      .   S
    N169   N173      1.38444      .   S
    N170   N174      1.38444      .   S
    N163   N76       1.37951      .   S
    N162   N166      1.37951      .   S
    N161   N165      1.37951      .   S
    N160   N164      1.37951      .   S
    N156   C52       1.36246      .   S
    N158   C54       1.36246      .   S
    N157   C53       1.36245      .   S
    N159   C55       1.36246      .   S
    N176   C68       1.36271      .   S
    N177   C69       1.36271      .   S
    N178   C70       1.36270      .   S
    N179   C71       1.36270      .   S
    N167   C63       1.36375      .   S
    N79    C62       1.36374      .   S
    N78    C61       1.36372      .   S
    N77    C60       1.36375      .   S
    N155   C55       1.32453      .   S
    N154   C54       1.32453      .   S
    N153   C53       1.32453      .   S
    N152   C52       1.32453      .   S
    N174   C70       1.32584      .   S
    N172   C68       1.32584      .   S
    N175   C71       1.32584      .   S
    N173   C69       1.32584      .   S
    N164   C60       1.32602      .   S
    N165   C61       1.32602      .   S
    N166   C62       1.32600      .   S
    N76    C63       1.32600      .   S
