# CIF file generated by openbabel 2.4.90, see http://openbabel.sf.net
data_I
_chemical_name_common ''
_cell_length_a 19.824
_cell_length_b 20.617
_cell_length_c 13.36
_cell_angle_alpha 74.154
_cell_angle_beta 79.598
_cell_angle_gamma 61.879
_space_group_name_H-M_alt 'P 1'
_space_group_name_Hall 'P 1'
loop_
    _symmetry_equiv_pos_as_xyz
    x,y,z
loop_
    _atom_site_label
    _atom_site_type_symbol
    _atom_site_fract_x
    _atom_site_fract_y
    _atom_site_fract_z
    _atom_site_occupancy
    Zn0     Zn   0.26611   0.79029   0.71877   1.000
    Zn1     Zn   0.76611   0.29028   0.71877   1.000
    Zn2     Zn   0.76611   0.79029   0.71877   1.000
    Zn3     Zn   0.42403   0.44195   0.87337   1.000
    Zn4     Zn   0.42403   0.94196   0.87337   1.000
    Zn5     Zn   0.92403   0.44195   0.87337   1.000
    Zn6     Zn   0.92402   0.94196   0.87337   1.000
    Zn7     Zn   0.23345   0.21022   0.28119   1.000
    Zn8     Zn   0.23345   0.71023   0.28119   1.000
    Zn9     Zn   0.73345   0.21022   0.28119   1.000
    Zn10    Zn   0.73344   0.71023   0.28119   1.000
    Zn11    Zn   0.07546   0.05874   0.12639   1.000
    Zn12    Zn   0.07546   0.55876   0.12639   1.000
    Zn13    Zn   0.57546   0.05874   0.12639   1.000
    Zn14    Zn   0.57546   0.55876   0.12639   1.000
    Zn15    Zn   0.24960   0.25049   0.30000   1.000
    Zn16    Zn   0.24960   0.75050   0.40000   1.000
    Zn17    Zn   0.74960   0.25049   0.30000   1.000
    Zn18    Zn   0.74960   0.75050   0.30000   1.000
    Zn19    Zn   0.26611   0.29028   0.71877   1.000
    C20     C    0.25445   0.35743   0.50155   1.000
    C21     C    0.25445   0.85744   0.50155   1.000
    C22     C    0.75445   0.35743   0.50155   1.000
    C23     C    0.75444   0.85744   0.50155   1.000
    C24     C    0.43007   0.41212   0.11045   1.000
    C25     C    0.43007   0.91213   0.11045   1.000
    C26     C    0.93007   0.41212   0.11045   1.000
    C27     C    0.93007   0.91213   0.11045   1.000
    O28     O    0.18365   0.38869   0.50821   1.000
    O29     O    0.18365   0.88870   0.50821   1.000
    O30     O    0.68365   0.38870   0.50821   1.000
    O31     O    0.68365   0.88870   0.50821   1.000
    O32     O    0.98903   0.41678   0.11674   1.000
    C33     C    0.24544   0.14271   0.49840   1.000
    C34     C    0.24544   0.64272   0.49840   1.000
    C35     C    0.74544   0.14271   0.49840   1.000
    C36     C    0.74543   0.64272   0.49840   1.000
    C37     C    0.06979   0.08807   0.88900   1.000
    C38     C    0.06979   0.58808   0.88900   1.000
    C39     C    0.56978   0.08807   0.88900   1.000
    C40     C    0.56978   0.58808   0.88900   1.000
    O41     O    0.30072   0.31187   0.57487   1.000
    O42     O    0.30072   0.81188   0.57487   1.000
    O43     O    0.80071   0.31187   0.57487   1.000
    O44     O    0.80071   0.81188   0.57487   1.000
    O45     O    0.98902   0.91679   0.11674   1.000
    O46     O    0.48902   0.41678   0.11674   1.000
    O47     O    0.48902   0.91679   0.11674   1.000
    O48     O    0.40001   0.41870   0.02778   1.000
    O49     O    0.40000   0.91871   0.02778   1.000
    O50     O    0.90000   0.41870   0.02778   1.000
    O51     O    0.90000   0.91871   0.02778   1.000
    O52     O    0.19914   0.18837   0.42515   1.000
    O53     O    0.19913   0.68838   0.42515   1.000
    O54     O    0.69913   0.18837   0.42515   1.000
    O55     O    0.69913   0.68838   0.42515   1.000
    O56     O    0.31623   0.11142   0.49170   1.000
    O57     O    0.31623   0.61143   0.49170   1.000
    O58     O    0.81623   0.11142   0.49170   1.000
    O59     O    0.81623   0.61143   0.49170   1.000
    O60     O    0.51095   0.08318   0.88331   1.000
    O61     O    0.51095   0.58319   0.88331   1.000
    O62     O    0.00000   0.08318   0.88331   1.000
    O63     O    0.00000   0.58319   0.88331   1.000
    O64     O    0.09971   0.08184   0.97210   1.000
    O65     O    0.09971   0.58185   0.97210   1.000
    O66     O    0.59971   0.08184   0.97210   1.000
    O67     O    0.59970   0.58185   0.97210   1.000
loop_
    _geom_bond_atom_site_label_1
    _geom_bond_atom_site_label_2
    _geom_bond_distance
    _geom_bond_site_symmetry_2
    _ccdc_geom_bond_type
    O49    C25       1.29353      .   S
    O49    Zn4       2.00815  1_554   S
    O51    C27       1.29352      .   S
    O51    Zn6       2.00814  1_554   S
    O50    C26       1.29352      .   S
    O50    Zn5       2.00814  1_554   S
    O48    C24       1.29352      .   S
    O48    Zn3       2.00814  1_554   S
    C24    O46       1.23595      .   S
    C27    O45       1.23613      .   S
    C26    O32       1.23615      .   S
    C25    O47       1.23595      .   S
    Zn11   O64       2.00717  1_554   S
    Zn12   O65       2.00717  1_554   S
    Zn13   O66       2.00717  1_554   S
    Zn14   O67       2.00717  1_554   S
    Zn7    O52       1.92565      .   S
    Zn7    Zn15      1.11733      .   S
    Zn8    Zn16      2.11303      .   S
    Zn9    O54       1.92565      .   S
    Zn9    Zn17      1.11731      .   S
    Zn10   O55       1.92565      .   S
    Zn10   Zn18      1.11731      .   S
    O55    C36       1.30124      .   S
    O54    C35       1.30124      .   S
    O53    C34       1.30124      .   S
    O53    Zn16      1.89884      .   S
    O52    C33       1.30124      .   S
    O56    C33       1.23549      .   S
    O57    C34       1.23549      .   S
    O58    C35       1.23549      .   S
    O59    C36       1.23549      .   S
    C21    O29       1.23552      .   S
    C21    O42       1.30114      .   S
    C20    O28       1.23554      .   S
    C20    O41       1.30114      .   S
    C22    O30       1.23554      .   S
    C22    O43       1.30114      .   S
    C23    O31       1.23554      .   S
    C23    O44       1.30113      .   S
    O42    Zn0       1.92590      .   S
    O44    Zn2       1.92590      .   S
    O43    Zn1       1.92590      .   S
    O41    Zn19      1.92590      .   S
    O63    C38       1.45032      .   S
    O62    C37       1.45036      .   S
    O61    C40       1.23418      .   S
    O60    C39       1.23420      .   S
    C40    O67       1.29962      .   S
    C39    O66       1.29962      .   S
    C38    O65       1.29962      .   S
    C37    O64       1.29962      .   S
    O52    Zn15      2.20708      .   S
    O53    Zn8       1.92565      .   S
    O54    Zn17      2.20707      .   S
    O55    Zn18      2.20708      .   S
