# CIF file generated by openbabel 2.4.90, see http://openbabel.sf.net
data_I
_chemical_name_common ''
_cell_length_a 19.824
_cell_length_b 20.617
_cell_length_c 13.36
_cell_angle_alpha 74.154
_cell_angle_beta 79.598
_cell_angle_gamma 61.879
_space_group_name_H-M_alt 'P 1'
_space_group_name_Hall 'P 1'
loop_
    _symmetry_equiv_pos_as_xyz
    x,y,z
loop_
    _atom_site_label
    _atom_site_type_symbol
    _atom_site_fract_x
    _atom_site_fract_y
    _atom_site_fract_z
    _atom_site_occupancy
    Zr0     Zr   0.26611   0.29028   0.71877   1.000
    Zr1     Zr   0.26611   0.79029   0.71877   1.000
    Zr2     Zr   0.76611   0.29028   0.71877   1.000
    Zr3     Zr   0.76611   0.79029   0.71877   1.000
    Zr4     Zr   0.42403   0.44195   0.87337   1.000
    Zr5     Zr   0.42403   0.94196   0.87337   1.000
    Zr6     Zr   0.92403   0.44195   0.87337   1.000
    Zr7     Zr   0.92402   0.94196   0.87337   1.000
    Zr8     Zr   0.23345   0.21022   0.28119   1.000
    Zr9     Zr   0.23345   0.71023   0.28119   1.000
    Zr10    Zr   0.73345   0.21022   0.28119   1.000
    Zr11    Zr   0.73344   0.71023   0.28119   1.000
    Zr12    Zr   0.07546   0.05874   0.12639   1.000
    Zr13    Zr   0.07546   0.55876   0.12639   1.000
    Zr14    Zr   0.57546   0.05874   0.12639   1.000
    Zr15    Zr   0.57546   0.55876   0.12639   1.000
    Zr16    Zr   0.24960   0.25049   0.30000   1.000
    Zr17    Zr   0.24960   0.75050   0.40000   1.000
    Zr18    Zr   0.74960   0.25049   0.30000   1.000
    Zr19    Zr   0.74960   0.75050   0.30000   1.000
    Zr20    Zr   0.25445   0.35743   0.50155   1.000
    Zr21    Zr   0.25445   0.85744   0.50155   1.000
    Zr22    Zr   0.75445   0.35743   0.50155   1.000
    Zr23    Zr   0.75444   0.85744   0.50155   1.000
    Zr24    Zr   0.43007   0.41212   0.11045   1.000
    Zr25    Zr   0.43007   0.91213   0.11045   1.000
    Zr26    Zr   0.93007   0.41212   0.11045   1.000
    Zr27    Zr   0.93007   0.91213   0.11045   1.000
    Zr28    Zr   0.24544   0.14271   0.49840   1.000
    Zr29    Zr   0.24544   0.64272   0.49840   1.000
    Zr30    Zr   0.74544   0.14271   0.49840   1.000
    Zr31    Zr   0.74543   0.64272   0.49840   1.000
    Zr32    Zr   0.06979   0.08807   0.88900   1.000
    Zr33    Zr   0.06979   0.58808   0.88900   1.000
    Zr34    Zr   0.56978   0.08807   0.88900   1.000
    Zr35    Zr   0.56978   0.58808   0.88900   1.000
    Zr36    Zr   0.30072   0.31187   0.57487   1.000
    Zr37    Zr   0.30072   0.81188   0.57487   1.000
    Zr38    Zr   0.80071   0.31187   0.57487   1.000
    Zr39    Zr   0.80071   0.81188   0.57487   1.000
    Zr40    Zr   0.18365   0.38869   0.50821   1.000
    Zr41    Zr   0.18365   0.88870   0.50821   1.000
    Zr42    Zr   0.68365   0.38870   0.50821   1.000
    Zr43    Zr   0.68365   0.88870   0.50821   1.000
    Zr44    Zr   0.98903   0.41678   0.11674   1.000
    Zr45    Zr   0.98902   0.91679   0.11674   1.000
    Zr46    Zr   0.48902   0.41678   0.11674   1.000
    Zr47    Zr   0.48902   0.91679   0.11674   1.000
    Zr48    Zr   0.40001   0.41870   0.02778   1.000
    Zr49    Zr   0.40000   0.91871   0.02778   1.000
    Zr50    Zr   0.90000   0.41870   0.02778   1.000
    Zr51    Zr   0.90000   0.91871   0.02778   1.000
    Zr52    Zr   0.19914   0.18837   0.42515   1.000
    Zr53    Zr   0.19913   0.68838   0.42515   1.000
    Zr54    Zr   0.69913   0.18837   0.42515   1.000
    Zr55    Zr   0.69913   0.68838   0.42515   1.000
    Zr56    Zr   0.31623   0.11142   0.49170   1.000
    Zr57    Zr   0.31623   0.61143   0.49170   1.000
    Zr58    Zr   0.81623   0.11142   0.49170   1.000
    Zr59    Zr   0.81623   0.61143   0.49170   1.000
    Zr60    Zr   0.51095   0.08318   0.88331   1.000
    Zr61    Zr   0.51095   0.58319   0.88331   1.000
    Zr62    Zr   0.00000   0.08318   0.88331   1.000
    Zr63    Zr   0.00000   0.58319   0.88331   1.000
    Zr64    Zr   0.09971   0.08184   0.97210   1.000
    Zr65    Zr   0.09971   0.58185   0.97210   1.000
    Zr66    Zr   0.59971   0.08184   0.97210   1.000
    Zr67    Zr   0.59970   0.58185   0.97210   1.000
    O68     O    0.41504   0.91542   0.06911   1.000
    O69     O    0.41202   0.93034   0.95057   1.000
    O70     O    0.91503   0.91542   0.06911   1.000
    O71     O    0.91201   0.93033   0.95057   1.000
    O72     O    0.91503   0.41541   0.06911   1.000
    O73     O    0.91201   0.43033   0.95057   1.000
    O74     O    0.41504   0.41541   0.06911   1.000
    O75     O    0.41202   0.43033   0.95057   1.000
    O76     O    0.45955   0.41445   0.11360   1.000
    O77     O    0.95954   0.91446   0.11360   1.000
    O78     O    0.95955   0.41445   0.11360   1.000
    O79     O    0.45954   0.91446   0.11360   1.000
    O80     O    0.08759   0.07029   0.04924   1.000
    O81     O    0.08759   0.57030   0.04924   1.000
    O82     O    0.58758   0.07029   0.04924   1.000
    O83     O    0.58758   0.57030   0.04924   1.000
    O84     O    0.21629   0.19930   0.35317   1.000
    O85     O    0.24153   0.23036   0.29059   1.000
    O86     O    0.24153   0.73037   0.34060   1.000
    O87     O    0.71629   0.19930   0.35317   1.000
    O88     O    0.74152   0.23036   0.29059   1.000
    O89     O    0.71629   0.69931   0.35317   1.000
    O90     O    0.74152   0.73037   0.29059   1.000
    O91     O    0.72228   0.66555   0.46177   1.000
    O92     O    0.72228   0.16554   0.46177   1.000
    O93     O    0.22229   0.66555   0.46177   1.000
    O94     O    0.22437   0.71944   0.41257   1.000
    O95     O    0.22229   0.16554   0.46177   1.000
    O96     O    0.28084   0.12706   0.49505   1.000
    O97     O    0.28084   0.62707   0.49505   1.000
    O98     O    0.78083   0.12706   0.49505   1.000
    O99     O    0.78083   0.62707   0.49505   1.000
    O100    O    0.21905   0.87307   0.50488   1.000
    O101    O    0.27758   0.83466   0.53821   1.000
    O102    O    0.21905   0.37306   0.50488   1.000
    O103    O    0.27759   0.33465   0.53821   1.000
    O104    O    0.71905   0.37306   0.50488   1.000
    O105    O    0.77758   0.33465   0.53821   1.000
    O106    O    0.71905   0.87307   0.50488   1.000
    O107    O    0.77758   0.83466   0.53821   1.000
    O108    O    0.28341   0.80108   0.64682   1.000
    O109    O    0.78341   0.80108   0.64682   1.000
    O110    O    0.78341   0.30107   0.64682   1.000
    O111    O    0.28342   0.30107   0.64682   1.000
    O112    O    0.03489   0.58564   0.88616   1.000
    O113    O    0.03489   0.08563   0.88616   1.000
    O114    O    0.54036   0.58564   0.88616   1.000
    O115    O    0.54037   0.08563   0.88616   1.000
    O116    O    0.58474   0.58496   0.93055   1.000
    O117    O    0.58474   0.08495   0.93055   1.000
    O118    O    0.08475   0.58496   0.93055   1.000
    O119    O    0.08475   0.08495   0.93055   1.000
    O120    O    0.22437   0.21943   0.36257   1.000
    O121    O    0.21629   0.69931   0.35317   1.000
    O122    O    0.72436   0.21943   0.36257   1.000
    O123    O    0.72436   0.71944   0.36257   1.000
    N124    N    0.83473   0.10975   0.84374   1.000
    O125    O    0.86394   0.05410   0.85184   1.000
    O126    O    0.81049   0.17224   0.79911   1.000
    N127    N    0.59479   0.36181   0.84219   1.000
    O128    O    0.65398   0.33681   0.79814   1.000
    O129    O    0.53801   0.38955   0.85036   1.000
    N130    N    0.09480   0.36181   0.84219   1.000
    O131    O    0.15398   0.33681   0.79814   1.000
    O132    O    0.03801   0.38955   0.85036   1.000
    N133    N    0.15111   0.15113   0.14993   1.000
    O134    O    0.12556   0.12041   0.14408   1.000
    O135    O    0.17803   0.17298   0.19605   1.000
    N136    N    0.84041   0.38448   0.30314   1.000
    O137    O    0.80831   0.37442   0.37661   1.000
    O138    O    0.87362   0.39460   0.23162   1.000
    N139    N    0.34041   0.38448   0.30314   1.000
    O140    O    0.37363   0.39460   0.23162   1.000
    O141    O    0.30831   0.37442   0.37661   1.000
    N142    N    0.65952   0.11561   0.69683   1.000
    O143    O    0.69161   0.12567   0.62335   1.000
    O144    O    0.62628   0.10551   0.76821   1.000
    N145    N    0.65952   0.61561   0.69683   1.000
    O146    O    0.62627   0.60552   0.76821   1.000
    O147    O    0.69160   0.62568   0.62335   1.000
    N148    N    0.59479   0.86182   0.84219   1.000
    O149    O    0.53800   0.88956   0.85036   1.000
    O150    O    0.65398   0.83682   0.79814   1.000
    N151    N    0.66469   0.39085   0.15490   1.000
    O152    O    0.69300   0.33840   0.20491   1.000
    O153    O    0.63550   0.44653   0.14742   1.000
    N154    N    0.84041   0.88417   0.30314   1.000
    O155    O    0.87362   0.89445   0.23162   1.000
    O156    O    0.80830   0.87427   0.37661   1.000
    N157    N    0.84848   0.34940   0.85000   1.000
    O158    O    0.87401   0.38016   0.85580   1.000
    O159    O    0.82156   0.32753   0.80390   1.000
    N160    N    0.33474   0.60976   0.84374   1.000
    O161    O    0.31049   0.67225   0.79911   1.000
    O162    O    0.36395   0.55411   0.85184   1.000
    N163    N    0.34849   0.84941   0.85000   1.000
    O164    O    0.32156   0.82754   0.80390   1.000
    O165    O    0.37402   0.88018   0.85580   1.000
    N166    N    0.65111   0.15113   0.14994   1.000
    O167    O    0.67803   0.17298   0.19605   1.000
    O168    O    0.62555   0.12041   0.14408   1.000
    N169    N    0.66469   0.89086   0.15490   1.000
    O170    O    0.69300   0.83841   0.20491   1.000
    O171    O    0.63549   0.94654   0.14742   1.000
    N172    N    0.34849   0.34940   0.85000   1.000
    O173    O    0.37402   0.38017   0.85580   1.000
    O174    O    0.32156   0.32753   0.80390   1.000
    N175    N    0.15952   0.11561   0.69683   1.000
    O176    O    0.12628   0.10551   0.76821   1.000
    O177    O    0.19161   0.12567   0.62335   1.000
    N178    N    0.33474   0.10975   0.84374   1.000
    O179    O    0.31050   0.17224   0.79911   1.000
    O180    O    0.36395   0.05410   0.85184   1.000
    N181    N    0.40471   0.13884   0.15654   1.000
    O182    O    0.46149   0.11111   0.14886   1.000
    O183    O    0.34554   0.16379   0.20116   1.000
    N184    N    0.09480   0.86182   0.84219   1.000
    O185    O    0.03801   0.88956   0.85036   1.000
    O186    O    0.15398   0.83682   0.79814   1.000
    N187    N    0.84848   0.84941   0.85000   1.000
    O188    O    0.87401   0.88017   0.85580   1.000
    O189    O    0.82155   0.82754   0.80390   1.000
    N190    N    0.40470   0.63885   0.15655   1.000
    O191    O    0.34554   0.66380   0.20117   1.000
    O192    O    0.46149   0.61112   0.14887   1.000
    N193    N    0.83473   0.60976   0.84374   1.000
    O194    O    0.81049   0.67225   0.79911   1.000
    O195    O    0.86394   0.55411   0.85184   1.000
    N196    N    0.34041   0.88417   0.30314   1.000
    O197    O    0.37362   0.89445   0.23162   1.000
    O198    O    0.30831   0.87427   0.37661   1.000
    N199    N    0.15952   0.61561   0.69683   1.000
    O200    O    0.19161   0.62568   0.62335   1.000
    O201    O    0.12628   0.60552   0.76821   1.000
    N202    N    0.16469   0.89086   0.15490   1.000
    O203    O    0.13550   0.94654   0.14742   1.000
    O204    O    0.18897   0.82835   0.20021   1.000
    N205    N    0.15111   0.65114   0.14993   1.000
    O206    O    0.12556   0.62042   0.14408   1.000
    O207    O    0.17803   0.67299   0.19605   1.000
    N208    N    0.90470   0.63885   0.15655   1.000
    O209    O    0.96149   0.61112   0.14887   1.000
    O210    O    0.84554   0.66380   0.20117   1.000
    N211    N    0.65111   0.65114   0.14993   1.000
    O212    O    0.62555   0.62042   0.14408   1.000
    O213    O    0.67803   0.67299   0.19605   1.000
    N214    N    0.90470   0.13884   0.15654   1.000
    O215    O    0.96149   0.11111   0.14886   1.000
    O216    O    0.84554   0.16379   0.20116   1.000
    N217    N    0.16470   0.39085   0.15490   1.000
    O218    O    0.13550   0.44653   0.14742   1.000
    O219    O    0.19301   0.33840   0.20491   1.000
loop_
    _geom_bond_atom_site_label_1
    _geom_bond_atom_site_label_2
    _geom_bond_distance
    _geom_bond_site_symmetry_2
    _ccdc_geom_bond_type
    Zr49   O68       0.64677      .   S
    Zr25   O68       0.64677      .   S
    Zr49   O69       1.00407  1_554   S
    Zr5    O69       1.00407      .   S
    Zr51   O70       0.64676      .   S
    Zr27   O70       0.64676      .   S
    Zr51   O71       1.00407  1_554   S
    Zr7    O71       1.00407      .   S
    Zr50   O72       0.64676      .   S
    Zr26   O72       0.64676      .   S
    Zr50   O73       1.00407  1_554   S
    Zr6    O73       1.00407      .   S
    Zr48   O74       0.64676      .   S
    Zr24   O74       0.64676      .   S
    Zr48   O75       1.00407  1_554   S
    Zr4    O75       1.00407      .   S
    Zr24   O76       0.61798      .   S
    Zr46   O76       0.61798      .   S
    Zr27   O77       0.61806      .   S
    Zr45   O77       0.61806      .   S
    Zr26   O78       0.61807      .   S
    Zr44   O78       0.61807      .   S
    Zr25   O79       0.61798      .   S
    Zr47   O79       0.61798      .   S
    Zr12   O80       1.00358      .   S
    Zr64   O80       1.00358  1_556   S
    Zr13   O81       1.00358      .   S
    Zr65   O81       1.00358  1_556   S
    Zr14   O82       1.00358      .   S
    Zr66   O82       1.00358  1_556   S
    Zr15   O83       1.00358      .   S
    Zr67   O83       1.00358  1_556   S
    Zr8    O84       0.96282      .   S
    Zr52   O84       0.96282      .   S
    Zr8    O85       0.55867      .   S
    Zr16   O85       0.55867      .   S
    Zr9    O86       1.05652      .   S
    Zr17   O86       1.05652      .   S
    Zr10   O87       0.96282      .   S
    Zr54   O87       0.96282      .   S
    Zr10   O88       0.55866      .   S
    Zr18   O88       0.55866      .   S
    Zr11   O89       0.96283      .   S
    Zr55   O89       0.96283      .   S
    Zr11   O90       0.55866      .   S
    Zr19   O90       0.55866      .   S
    Zr55   O91       0.65062      .   S
    Zr31   O91       0.65062      .   S
    Zr54   O92       0.65062      .   S
    Zr30   O92       0.65062      .   S
    Zr53   O93       0.65062      .   S
    Zr29   O93       0.65062      .   S
    Zr53   O94       0.94942      .   S
    Zr17   O94       0.94942      .   S
    Zr52   O95       0.65062      .   S
    Zr28   O95       0.65062      .   S
    Zr56   O96       0.61775      .   S
    Zr28   O96       0.61775      .   S
    Zr57   O97       0.61775      .   S
    Zr29   O97       0.61775      .   S
    Zr58   O98       0.61775      .   S
    Zr30   O98       0.61775      .   S
    Zr59   O99       0.61775      .   S
    Zr31   O99       0.61775      .   S
    Zr21   O100      0.61776      .   S
    Zr41   O100      0.61776      .   S
    Zr21   O101      0.65057      .   S
    Zr37   O101      0.65057      .   S
    Zr20   O102      0.61777      .   S
    Zr40   O102      0.61777      .   S
    Zr20   O103      0.65057      .   S
    Zr36   O103      0.65057      .   S
    Zr22   O104      0.61777      .   S
    Zr42   O104      0.61777      .   S
    Zr22   O105      0.65057      .   S
    Zr38   O105      0.65057      .   S
    Zr23   O106      0.61777      .   S
    Zr43   O106      0.61777      .   S
    Zr23   O107      0.65056      .   S
    Zr39   O107      0.65056      .   S
    Zr37   O108      0.96295      .   S
    Zr1    O108      0.96295      .   S
    Zr39   O109      0.96295      .   S
    Zr3    O109      0.96295      .   S
    Zr38   O110      0.96295      .   S
    Zr2    O110      0.96295      .   S
    Zr36   O111      0.96295      .   S
    Zr0    O111      0.96295      .   S
    Zr63   O112      0.72516      .   S
    Zr33   O112      0.72516      .   S
    Zr62   O113      0.72518      .   S
    Zr32   O113      0.72518      .   S
    Zr61   O114      0.61709      .   S
    Zr35   O114      0.61709      .   S
    Zr60   O115      0.61710      .   S
    Zr34   O115      0.61710      .   S
    Zr35   O116      0.64981      .   S
    Zr67   O116      0.64981      .   S
    Zr34   O117      0.64981      .   S
    Zr66   O117      0.64981      .   S
    Zr33   O118      0.64981      .   S
    Zr65   O118      0.64981      .   S
    Zr32   O119      0.64981      .   S
    Zr64   O119      0.64981      .   S
    Zr52   O120      1.10354      .   S
    Zr16   O120      1.10354      .   S
    Zr53   O121      0.96283      .   S
    Zr9    O121      0.96283      .   S
    Zr54   O122      1.10354      .   S
    Zr18   O122      1.10354      .   S
    Zr55   O123      1.10354      .   S
    Zr19   O123      1.10354      .   S
    N124   O125      0.99595      .   S
    Zr7    O125      2.00287  1_565   S
    N124   O126      1.16043      .   S
    Zr2    O126      2.17824      .   S
    N127   O128      1.15530      .   S
    Zr2    O128      2.16337      .   S
    N127   O129      0.99455      .   S
    Zr4    O129      1.99904      .   S
    N130   O131      1.15530      .   S
    Zr0    O131      2.16335      .   S
    N130   O132      0.99459      .   S
    Zr6    O132      1.99917  1_655   S
    N133   O134      1.00397      .   S
    Zr12   O134      2.02412      .   S
    N133   O135      1.16798      .   S
    Zr8    O135      2.19409      .   S
    N136   O137      1.09507      .   S
    Zr22   O137      1.85439      .   S
    N136   O138      1.08785      .   S
    Zr26   O138      1.84685      .   S
    N139   O140      1.08785      .   S
    Zr24   O140      1.84685      .   S
    N139   O141      1.09506      .   S
    Zr20   O141      1.85439      .   S
    N142   O143      1.09507      .   S
    Zr30   O143      1.85439      .   S
    N142   O144      1.08668      .   S
    Zr34   O144      1.84332      .   S
    N145   O146      1.08668      .   S
    Zr35   O146      1.84332      .   S
    N145   O147      1.09507      .   S
    Zr31   O147      1.85439      .   S
    N148   O149      0.99455      .   S
    Zr5    O149      1.99904      .   S
    N148   O150      1.15530      .   S
    Zr3    O150      2.16335      .   S
    N151   O152      1.04854      .   S
    Zr18   O152      1.87031      .   S
    N151   O153      0.99733      .   S
    Zr15   O153      2.00467      .   S
    N154   O155      1.08863      .   S
    Zr27   O155      1.84764      .   S
    N154   O156      1.09436      .   S
    Zr23   O156      1.85370      .   S
    N157   O158      1.00413      .   S
    Zr6    O158      2.02446      .   S
    N157   O159      1.16812      .   S
    Zr2    O159      2.19463      .   S
    N160   O161      1.16042      .   S
    Zr1    O161      2.17823      .   S
    N160   O162      0.99603      .   S
    Zr4    O162      2.00312      .   S
    N163   O164      1.16809      .   S
    Zr1    O164      2.19462      .   S
    N163   O165      1.00414      .   S
    Zr5    O165      2.02449      .   S
    N166   O167      1.16793      .   S
    Zr10   O167      2.19405      .   S
    N166   O168      1.00399      .   S
    Zr14   O168      2.02412      .   S
    N169   O170      1.04854      .   S
    Zr19   O170      1.87031      .   S
    N169   O171      0.99725      .   S
    Zr14   O171      2.00441  1_545   S
    N172   O173      1.00414      .   S
    Zr4    O173      2.02448      .   S
    N172   O174      1.16810      .   S
    Zr0    O174      2.19462      .   S
    N175   O176      1.08668      .   S
    Zr32   O176      1.84332      .   S
    N175   O177      1.09507      .   S
    Zr28   O177      1.85439      .   S
    N178   O179      1.16042      .   S
    Zr0    O179      2.17823      .   S
    N178   O180      0.99594      .   S
    Zr5    O180      2.00286  1_565   S
    N181   O182      0.99411      .   S
    Zr14   O182      1.99822      .   S
    N181   O183      1.15835      .   S
    Zr8    O183      2.16638      .   S
    N184   O185      0.99459      .   S
    Zr7    O185      1.99916  1_655   S
    N184   O186      1.15530      .   S
    Zr1    O186      2.16336      .   S
    N187   O188      1.00414      .   S
    Zr7    O188      2.02448      .   S
    N187   O189      1.16810      .   S
    Zr3    O189      2.19461      .   S
    N190   O191      1.15833      .   S
    Zr9    O191      2.16635      .   S
    N190   O192      0.99411      .   S
    Zr15   O192      1.99821      .   S
    N193   O194      1.16043      .   S
    Zr3    O194      2.17824      .   S
    N193   O195      0.99603      .   S
    Zr6    O195      2.00313      .   S
    N196   O197      1.08863      .   S
    Zr25   O197      1.84764      .   S
    N196   O198      1.09436      .   S
    Zr21   O198      1.85370      .   S
    N199   O200      1.09507      .   S
    Zr29   O200      1.85439      .   S
    N199   O201      1.08668      .   S
    Zr33   O201      1.84332      .   S
    N202   O203      0.99724      .   S
    Zr12   O203      2.00440  1_545   S
    N202   O204      1.16346      .   S
    Zr9    O204      2.18161      .   S
    N205   O206      1.00397      .   S
    Zr13   O206      2.02412      .   S
    N205   O207      1.16798      .   S
    Zr9    O207      2.19409      .   S
    N208   O209      0.99415      .   S
    Zr13   O209      1.99833  1_455   S
    N208   O210      1.15833      .   S
    Zr11   O210      2.16635      .   S
    N211   O212      1.00397      .   S
    Zr15   O212      2.02411      .   S
    N211   O213      1.16798      .   S
    Zr11   O213      2.19410      .   S
    N214   O215      0.99415      .   S
    Zr12   O215      1.99832  1_455   S
    N214   O216      1.15836      .   S
    Zr10   O216      2.16638      .   S
    N217   O218      0.99733      .   S
    Zr13   O218      2.00466      .   S
    N217   O219      1.04854      .   S
    Zr16   O219      1.87031      .   S
