# CIF file generated by openbabel 2.4.90, see http://openbabel.sf.net
data_I
_chemical_name_common 'Ga3P3O13'
_cell_length_a 9.0755
_cell_length_b 9.1395
_cell_length_c 18.989
_cell_angle_alpha 89.998
_cell_angle_beta 89.993
_cell_angle_gamma 70.226
_space_group_name_H-M_alt 'P 1'
_space_group_name_Hall 'P 1'
loop_
    _symmetry_equiv_pos_as_xyz
    x,y,z
loop_
    _atom_site_label
    _atom_site_type_symbol
    _atom_site_fract_x
    _atom_site_fract_y
    _atom_site_fract_z
    _atom_site_occupancy
    Ga0     Ga   0.14488   0.34844   0.41042   1.000
    Ga1     Ga   0.03688   0.21092   0.18345   1.000
    Ga2     Ga   0.51815   0.29967   0.17722   1.000
    Ga3     Ga   0.36143   0.15166   0.91034   1.000
    Ga4     Ga   0.46947   0.28907   0.68349   1.000
    Ga5     Ga   0.98817   0.20008   0.67653   1.000
    Ga6     Ga   0.86141   0.65152   0.58955   1.000
    Ga7     Ga   0.96945   0.78890   0.81646   1.000
    Ga8     Ga   0.48809   0.70028   0.82277   1.000
    Ga9     Ga   0.64484   0.84831   0.08958   1.000
    Ga10    Ga   0.53683   0.71103   0.31653   1.000
    Ga11    Ga   0.01798   0.80003   0.32339   1.000
    P12     P    0.35126   0.12209   0.08276   1.000
    P13     P    0.32298   0.50039   0.30032   1.000
    P14     P    0.22512   0.01411   0.35172   1.000
    P15     P    0.15536   0.37836   0.58270   1.000
    P16     P    0.18326   0.99982   0.80000   1.000
    P17     P    0.28070   0.48547   0.85101   1.000
    P18     P    0.65502   0.87785   0.91718   1.000
    P19     P    0.68331   0.49973   0.69967   1.000
    P20     P    0.78106   0.98593   0.64825   1.000
    P21     P    0.85123   0.62208   0.41718   1.000
    P22     P    0.82289   0.00012   0.20002   1.000
    P23     P    0.72558   0.51454   0.14897   1.000
    O24     O    0.08063   0.96374   0.35440   1.000
    O25     O    0.21149   0.13212   0.41044   1.000
    O26     O    0.32981   0.10761   0.00000   1.000
    O27     O    0.28736   0.42445   0.36746   1.000
    O28     O    0.18983   0.18791   0.11718   1.000
    O29     O    0.43905   0.95738   0.11448   1.000
    O30     O    0.24170   0.09603   0.27675   1.000
    O31     O    0.47486   0.53741   0.31489   1.000
    O32     O    0.38002   0.88016   0.35522   1.000
    O33     O    0.35120   0.38587   0.23744   1.000
    O34     O    0.18540   0.65008   0.27984   1.000
    O35     O    0.44954   0.23067   0.09595   1.000
    O36     O    0.10140   0.24339   0.27401   1.000
    O37     O    0.42535   0.53558   0.85212   1.000
    O38     O    0.29469   0.36797   0.91044   1.000
    O39     O    0.17694   0.39276   0.50340   1.000
    O40     O    0.21882   0.07582   0.86738   1.000
    O41     O    0.31675   0.31249   0.61714   1.000
    O42     O    0.06714   0.54267   0.61443   1.000
    O43     O    0.26450   0.40410   0.77676   1.000
    O44     O    0.03171   0.96236   0.81477   1.000
    O45     O    0.12591   0.61948   0.85507   1.000
    O46     O    0.15469   0.11402   0.73731   1.000
    O47     O    0.32110   0.85067   0.77897   1.000
    O48     O    0.05712   0.26980   0.59582   1.000
    O49     O    0.40466   0.25662   0.77402   1.000
    O50     O    0.92551   0.03638   0.64556   1.000
    O51     O    0.79396   0.86778   0.58935   1.000
    O52     O    0.67665   0.89226   0.99649   1.000
    O53     O    0.71893   0.57550   0.63248   1.000
    O54     O    0.81639   0.81202   0.88268   1.000
    O55     O    0.56725   0.04260   0.88547   1.000
    O56     O    0.76637   0.90558   0.72299   1.000
    O57     O    0.53145   0.46267   0.68514   1.000
    O58     O    0.62613   0.11986   0.64478   1.000
    O59     O    0.65505   0.61447   0.76248   1.000
    O60     O    0.82091   0.35010   0.72020   1.000
    O61     O    0.55670   0.76928   0.90404   1.000
    O62     O    0.90560   0.75728   0.72567   1.000
    O63     O    0.58106   0.46423   0.14784   1.000
    O64     O    0.71154   0.63201   0.08954   1.000
    O65     O    0.82977   0.60747   0.49647   1.000
    O66     O    0.78742   0.92426   0.13249   1.000
    O67     O    0.68981   0.68796   0.38277   1.000
    O68     O    0.93938   0.45780   0.38541   1.000
    O69     O    0.74162   0.59600   0.22322   1.000
    O70     O    0.97438   0.03769   0.18524   1.000
    O71     O    0.88050   0.38068   0.14494   1.000
    O72     O    0.85114   0.88584   0.26254   1.000
    O73     O    0.68500   0.14920   0.22110   1.000
    O74     O    0.94952   0.73068   0.40403   1.000
    O75     O    0.60134   0.74339   0.22594   1.000
loop_
    _geom_bond_atom_site_label_1
    _geom_bond_atom_site_label_2
    _geom_bond_distance
    _geom_bond_site_symmetry_2
    _ccdc_geom_bond_type
    O26    P12       1.59447      .   S
    O26    Ga3       1.79476  1_554   S
    P12    O35       1.56271      .   S
    P12    O29       1.56602  1_545   S
    P12    O28       1.52949      .   S
    O64    P23       1.53304      .   S
    Ga9    O29       1.85620      .   S
    Ga9    O66       1.85148      .   S
    Ga9    O52       1.85677  1_554   S
    O35    Ga2       1.85299      .   S
    O28    Ga1       1.83203      .   S
    O66    P22       1.54271  1_565   S
    O71    P23       1.52164      .   S
    O71    Ga1       1.86179  1_655   S
    O63    P23       1.52980      .   S
    P23    O69       1.62387      .   S
    Ga2    O73       1.86269      .   S
    Ga2    O33       1.84822      .   S
    Ga1    O70       1.85401  1_455   S
    O70    P22       1.55111      .   S
    P22    O73       1.55855      .   S
    P22    O72       1.54433  1_545   S
    O69    O75       1.50917      .   S
    O33    P13       1.55096      .   S
    O72    Ga11      1.85474  1_655   S
    O36    O30       1.50918      .   S
    O30    P14       1.63882      .   S
    O34    P13       1.55764      .   S
    O34    Ga11      1.86054      .   S
    P13    O31       1.55130      .   S
    P13    O27       1.53728      .   S
    O31    Ga10      1.85450      .   S
    Ga10   O32       1.86169      .   S
    Ga10   O67       1.83202      .   S
    Ga11   O74       1.84356  1_455   S
    P14    O24       1.53055  1_545   S
    P14    O32       1.52155  1_545   S
    P14    O25       1.52698      .   S
    O27    Ga0       1.85138      .   S
    O67    P21       1.52946      .   S
    O68    Ga0       1.85515  1_655   S
    O68    P21       1.56381      .   S
    O74    P21       1.56276      .   S
    Ga0    O39       1.85643      .   S
    P21    O65       1.52974      .   S
    O65    Ga6       1.85650      .   S
    O39    P15       1.52986      .   S
    P15    O48       1.56201      .   S
    P15    O42       1.56390      .   S
    P15    O41       1.52938      .   S
    O51    P20       1.53151      .   S
    Ga6    O42       1.85535  1_655   S
    Ga6    O53       1.85114      .   S
    O48    Ga5       1.84826  1_455   S
    O41    Ga4       1.83148      .   S
    O53    P19       1.53730      .   S
    O58    P20       1.52154  1_545   S
    O58    Ga4       1.86162      .   S
    O50    P20       1.53056  1_545   S
    P20    O56       1.62400      .   S
    Ga5    O60       1.86095      .   S
    Ga5    O46       1.85221  1_655   S
    Ga4    O57       1.85438      .   S
    O57    P19       1.55123      .   S
    P19    O60       1.55762      .   S
    P19    O59       1.55118      .   S
    O56    O62       1.50912      .   S
    O46    P16       1.54611  1_545   S
    O59    Ga8       1.84857      .   S
    O49    O43       1.50912      .   S
    O43    P17       1.62393      .   S
    O47    P16       1.55846      .   S
    O47    Ga8       1.86239      .   S
    P16    O44       1.55115      .   S
    P16    O40       1.54129  1_565   S
    O44    Ga7       1.85459  1_455   S
    Ga7    O45       1.86111  1_655   S
    Ga7    O54       1.83202      .   S
    Ga8    O61       1.85286      .   S
    P17    O37       1.52989      .   S
    P17    O45       1.52161      .   S
    P17    O38       1.53304      .   S
    O40    Ga3       1.85157      .   S
    O54    P18       1.52954      .   S
    O55    Ga3       1.85624      .   S
    O55    P18       1.56614  1_545   S
    O61    P18       1.56273      .   S
    P18    O52       1.53022      .   S
    O24    Ga11      1.86660      .   S
    O25    Ga0       1.86157      .   S
    O36    Ga1       1.87237      .   S
    O37    Ga8       1.86556      .   S
    O38    Ga3       1.86152      .   S
    O49    Ga4       1.87248      .   S
    O50    Ga5       1.86641      .   S
    O51    Ga6       1.86088      .   S
    O62    Ga7       1.87235      .   S
    O63    Ga2       1.86545      .   S
    O64    Ga9       1.86137      .   S
    O75    Ga10      1.87254      .   S
