# CIF file generated by openbabel 2.4.90, see http://openbabel.sf.net
data_I
_chemical_name_common ''
_cell_length_a 16.171
_cell_length_b 16.186
_cell_length_c 26.823
_cell_angle_alpha 84.506
_cell_angle_beta 84.475
_cell_angle_gamma 84.441
_space_group_name_H-M_alt 'P 1'
_space_group_name_Hall 'P 1'
loop_
    _symmetry_equiv_pos_as_xyz
    x,y,z
loop_
    _atom_site_label
    _atom_site_type_symbol
    _atom_site_fract_x
    _atom_site_fract_y
    _atom_site_fract_z
    _atom_site_occupancy
    C0      C    0.76961   0.19128   0.09550   1.000
    C1      C    0.79902   0.46436   0.42339   1.000
    C2      C    0.41588   0.81044   0.05643   1.000
    C3      C    0.80506   0.23132   0.40561   1.000
    C4      C    0.17832   0.82291   0.03790   1.000
    C5      C    0.46296   0.80329   0.92245   1.000
    C6      C    0.80881   0.41608   0.55736   1.000
    C7      C    0.23036   0.80868   0.90443   1.000
    C8      C    0.81993   0.17914   0.53822   1.000
    C9      C    0.53700   0.19667   0.07760   1.000
    C10     C    0.19120   0.58391   0.44265   1.000
    C11     C    0.18010   0.82085   0.46179   1.000
    C12     C    0.20100   0.53565   0.57661   1.000
    C13     C    0.58407   0.18957   0.94360   1.000
    C14     C    0.19495   0.76872   0.59439   1.000
    C15     C    0.82164   0.17706   0.96208   1.000
