# CIF file generated by openbabel 2.4.90, see http://openbabel.sf.net
data_I
_chemical_name_common ''
_cell_length_a 16.171
_cell_length_b 16.186
_cell_length_c 26.823
_cell_angle_alpha 84.506
_cell_angle_beta 84.475
_cell_angle_gamma 84.441
_space_group_name_H-M_alt 'P 1'
_space_group_name_Hall 'P 1'
loop_
    _symmetry_equiv_pos_as_xyz
    x,y,z
loop_
    _atom_site_label
    _atom_site_type_symbol
    _atom_site_fract_x
    _atom_site_fract_y
    _atom_site_fract_z
    _atom_site_occupancy
    N0      N    0.78267   0.85486   0.23001   1.000
    N1      N    0.85351   0.78441   0.72962   1.000
    N2      N    0.14646   0.21558   0.27037   1.000
    N3      N    0.30806   0.31773   0.48547   1.000
    N4      N    0.31734   0.31124   0.98483   1.000
    N5      N    0.21730   0.14515   0.76998   1.000
    N6      N    0.69196   0.68226   0.51454   1.000
    N7      N    0.68264   0.68875   0.01518   1.000
    Zr8     Zr   0.32165   0.81137   0.98058   1.000
    O9      O    0.46839   0.82264   0.06645   1.000
    O10     O    0.17427   0.80217   0.89422   1.000
    O11     O    0.32209   0.64885   0.98522   1.000
    O12     O    0.31791   0.97408   0.97901   1.000
    O13     O    0.14081   0.82661   0.06111   1.000
    O14     O    0.50006   0.80263   0.89925   1.000
    Zr15    Zr   0.80818   0.32258   0.48144   1.000
    O16     O    0.79926   0.17525   0.39507   1.000
    O17     O    0.82029   0.46935   0.56701   1.000
    O18     O    0.82397   0.14191   0.56149   1.000
    O19     O    0.97088   0.31892   0.47957   1.000
    O20     O    0.79957   0.50118   0.39999   1.000
    O21     O    0.64562   0.32272   0.48622   1.000
    Zr22    Zr   0.67831   0.18861   0.01943   1.000
    O23     O    0.82569   0.19780   0.10578   1.000
    O24     O    0.49990   0.19735   0.10077   1.000
    O25     O    0.67789   0.35114   0.01479   1.000
    O26     O    0.68204   0.02591   0.02100   1.000
    O27     O    0.85915   0.17337   0.93889   1.000
    O28     O    0.53157   0.17736   0.93356   1.000
    Zr29    Zr   0.19184   0.67743   0.51857   1.000
    O30     O    0.17604   0.85809   0.43852   1.000
    O31     O    0.20043   0.49883   0.60001   1.000
    O32     O    0.02914   0.68109   0.52043   1.000
    O33     O    0.17971   0.53065   0.43300   1.000
    O34     O    0.20074   0.82476   0.60493   1.000
    O35     O    0.35440   0.67729   0.51377   1.000
loop_
    _geom_bond_atom_site_label_1
    _geom_bond_atom_site_label_2
    _geom_bond_distance
    _geom_bond_site_symmetry_2
    _ccdc_geom_bond_type
    Zr8    O9        3.49087  1_556   S
    N0     O9        7.11286      .   S
    Zr8    O10       3.50229      .   S
    N1     O10       7.17085  1_655   S
    Zr8    O11       2.62100      .   S
    N4     O11       5.47353      .   S
    Zr8    O12       2.62478      .   S
    N4     O12       5.47351  1_545   S
    Zr8    O13       3.46761  1_556   S
    N0     O13       7.00755  1_655   S
    Zr8    O14       3.44533      .   S
    N1     O14       6.95556      .   S
    Zr15   O16       3.50184      .   S
    N0     O16       7.17377  1_565   S
    Zr15   O17       3.48856      .   S
    N1     O17       7.11068      .   S
    Zr15   O18       3.46207      .   S
    N1     O18       6.99527  1_565   S
    Zr15   O19       2.62174      .   S
    N3     O19       5.46811  1_455   S
    Zr15   O20       3.45263      .   S
    N0     O20       6.96949      .   S
    Zr15   O21       2.61930      .   S
    N3     O21       5.46911      .   S
    Zr22   O23       3.50202      .   S
    N2     O23       7.17075  1_455   S
    Zr22   O24       3.44544      .   S
    N2     O24       6.95516      .   S
    Zr22   O25       2.62105      .   S
    N7     O25       5.47356      .   S
    Zr22   O26       2.62473      .   S
    N7     O26       5.47348  1_565   S
    Zr22   O27       3.46777  1_554   S
    N5     O27       7.00776  1_455   S
    Zr22   O28       3.49086  1_554   S
    N5     O28       7.11311      .   S
    Zr29   O30       3.46198      .   S
    N2     O30       6.99528  1_545   S
    Zr29   O31       3.45241      .   S
    N5     O31       6.96937      .   S
    Zr29   O32       2.62172      .   S
    N6     O32       5.46813  1_655   S
    Zr29   O33       3.48877      .   S
    N2     O33       7.11123      .   S
    Zr29   O34       3.50180      .   S
    N5     O34       7.17342  1_545   S
    Zr29   O35       2.61930      .   S
    N6     O35       5.46914      .   S
