# CIF file generated by openbabel 2.4.90, see http://openbabel.sf.net
data_I
_chemical_name_common 'CdH2C7O6'
_cell_length_a 6.902
_cell_length_b 7.896
_cell_length_c 10.093
_cell_angle_alpha 93.851
_cell_angle_beta 109.485
_cell_angle_gamma 105.528
_space_group_name_H-M_alt 'P 1'
_space_group_name_Hall 'P 1'
loop_
    _symmetry_equiv_pos_as_xyz
    x,y,z
loop_
    _atom_site_label
    _atom_site_type_symbol
    _atom_site_fract_x
    _atom_site_fract_y
    _atom_site_fract_z
    _atom_site_occupancy
    Cd0     Cd   0.48050   0.02006   0.03596   1.000
    Cd1     Cd   0.48050   0.02007   0.53594   1.000
    H2      H    0.44517   0.60202   0.79817   1.000
    H3      H    0.44518   0.60202   0.29819   1.000
    H4      H    0.94136   0.49310   0.47989   1.000
    H5      H    0.94136   0.49310   0.00000   1.000
    C6      C    0.23174   0.33953   0.75475   1.000
    C7      C    0.23175   0.33952   0.25477   1.000
    C8      C    0.33280   0.25545   0.66736   1.000
    C9      C    0.33281   0.25544   0.16737   1.000
    C10     C    0.30707   0.51537   0.81549   1.000
    C11     C    0.30708   0.51537   0.31550   1.000
    C12     C    0.20687   0.58256   0.90257   1.000
    C13     C    0.20688   0.58256   0.40258   1.000
    C14     C    0.02657   0.45301   0.91639   1.000
    C15     C    0.02656   0.45301   0.41640   1.000
    C16     C    0.96237   0.28030   0.85203   1.000
    C17     C    0.96237   0.28030   0.35204   1.000
    C18     C    0.77514   0.13877   0.86381   1.000
    C19     C    0.77515   0.13877   0.36382   1.000
    O20     O    0.06119   0.22150   0.77142   1.000
    O21     O    0.06120   0.22150   0.27143   1.000
    O22     O    0.23291   0.09148   0.60826   1.000
    O23     O    0.23292   0.09148   0.10828   1.000
    O24     O    0.50664   0.34845   0.66126   1.000
    O25     O    0.50664   0.34845   0.16127   1.000
    O26     O    0.26620   0.74158   0.46717   1.000
    O27     O    0.26622   0.74158   0.00000   1.000
    O28     O    0.67285   0.00150   0.76936   1.000
    O29     O    0.67285   0.00151   0.26937   1.000
    O30     O    0.73774   0.17814   0.97561   1.000
    O31     O    0.73775   0.17814   0.47562   1.000
loop_
    _geom_bond_atom_site_label_1
    _geom_bond_atom_site_label_2
    _geom_bond_distance
    _geom_bond_site_symmetry_2
    _ccdc_geom_bond_type
    O27    Cd0       2.22434  1_565   S
    O27    C12       1.41472  1_554   S
    H5     C14       1.24621  1_654   S
    Cd0    O23       2.25029      .   S
    Cd0    O29       2.32335      .   S
    Cd0    O30       2.17215  1_554   S
    O23    C9        1.28502      .   S
    O25    C9        1.25151      .   S
    C9     C7        1.51165      .   S
    C7     O21       1.35951      .   S
    C7     C11       1.36398      .   S
    O29    C19       1.25873      .   S
    O21    C17       1.35347  1_455   S
    H3     C11       1.08870      .   S
    C11    C13       1.43926      .   S
    C17    C19       1.50995      .   S
    C17    C15       1.35771  1_655   S
    C19    O31       1.27543      .   S
    C13    C15       1.43804      .   S
    C13    O26       1.26728      .   S
    C15    H4        1.08652  1_455   S
    O26    Cd1       2.20757  1_565   S
    O31    Cd1       2.17205      .   S
    Cd1    O22       2.25028      .   S
    Cd1    O28       2.32343      .   S
    O22    C8        1.28503      .   S
    O24    C8        1.25151      .   S
    C8     C6        1.51164      .   S
    C6     O20       1.35951      .   S
    C6     C10       1.36398      .   S
    O28    C18       1.25873      .   S
    O20    C16       1.35346  1_455   S
    H2     C10       1.08870      .   S
    C10    C12       1.43927      .   S
    C16    C18       1.50997      .   S
    C16    C14       1.35770  1_655   S
    C18    O30       1.27543      .   S
    C12    C14       1.43805      .   S
