# CIF file generated by openbabel 2.4.90, see http://openbabel.sf.net
data_I
_chemical_name_common ''
_cell_length_a 18.795
_cell_length_b 18.726
_cell_length_c 18.724
_cell_angle_alpha 60.224
_cell_angle_beta 60.401
_cell_angle_gamma 60.366
_space_group_name_H-M_alt 'P 1'
_space_group_name_Hall 'P 1'
loop_
    _symmetry_equiv_pos_as_xyz
    x,y,z
loop_
    _atom_site_label
    _atom_site_type_symbol
    _atom_site_fract_x
    _atom_site_fract_y
    _atom_site_fract_z
    _atom_site_occupancy
    Zn0     Zn   0.37210   0.54247   0.54249   1.000
    Zn1     Zn   0.54276   0.54347   0.54336   1.000
    Zn2     Zn   0.54249   0.54281   0.37111   1.000
    Zn3     Zn   0.12731   0.95767   0.95760   1.000
    Zn4     Zn   0.95762   0.12847   0.95721   1.000
    Zn5     Zn   0.95761   0.95724   0.12838   1.000
    Zn6     Zn   0.95728   0.95656   0.95666   1.000
    Zn7     Zn   0.54243   0.37108   0.54281   1.000
