# CIF file generated by openbabel 2.4.90, see http://openbabel.sf.net
data_I
_chemical_name_common ''
_cell_length_a 18.795
_cell_length_b 18.726
_cell_length_c 18.724
_cell_angle_alpha 60.224
_cell_angle_beta 60.401
_cell_angle_gamma 60.366
_space_group_name_H-M_alt 'P 1'
_space_group_name_Hall 'P 1'
loop_
    _symmetry_equiv_pos_as_xyz
    x,y,z
loop_
    _atom_site_label
    _atom_site_type_symbol
    _atom_site_fract_x
    _atom_site_fract_y
    _atom_site_fract_z
    _atom_site_occupancy
    Zr0     Zr   0.54243   0.37108   0.54281   1.000
    Zr1     Zr   0.37210   0.54247   0.54249   1.000
    Zr2     Zr   0.54276   0.54347   0.54336   1.000
    Zr3     Zr   0.54249   0.54281   0.37111   1.000
    Zr4     Zr   0.12731   0.95767   0.95760   1.000
    Zr5     Zr   0.95762   0.12847   0.95721   1.000
    Zr6     Zr   0.95761   0.95724   0.12838   1.000
    Zr7     Zr   0.95728   0.95656   0.95666   1.000
    N8      N    0.24278   0.24281   0.75718   1.000
    O9      O    0.36842   0.29510   0.66794   1.000
    O10     O    0.19692   0.12446   0.83940   1.000
    O11     O    0.29564   0.36837   0.66781   1.000
    O12     O    0.12436   0.19754   0.83924   1.000
    N13     N    0.24278   0.75719   0.24279   1.000
    O14     O    0.36844   0.66800   0.29512   1.000
    O15     O    0.12437   0.83926   0.19748   1.000
    O16     O    0.19692   0.83946   0.12442   1.000
    O17     O    0.29564   0.66780   0.36837   1.000
    N18     N    0.75714   0.24276   0.75711   1.000
    O19     O    0.83919   0.12395   0.83882   1.000
    O20     O    0.66777   0.29528   0.66803   1.000
    O21     O    0.83940   0.19730   0.83906   1.000
    O22     O    0.66792   0.36882   0.66830   1.000
    N23     N    0.75718   0.24279   0.24276   1.000
    O24     O    0.66768   0.29515   0.36854   1.000
    O25     O    0.66776   0.36853   0.29516   1.000
    O26     O    0.83951   0.19747   0.12421   1.000
    O27     O    0.83951   0.12427   0.19738   1.000
    N28     N    0.24277   0.75715   0.75710   1.000
    O29     O    0.19680   0.83936   0.83931   1.000
    O30     O    0.29575   0.66784   0.66782   1.000
    O31     O    0.36862   0.66832   0.66824   1.000
    O32     O    0.12416   0.83884   0.83885   1.000
    N33     N    0.75715   0.75714   0.24271   1.000
    O34     O    0.66781   0.66803   0.29527   1.000
    O35     O    0.66791   0.66839   0.36874   1.000
    O36     O    0.83938   0.83912   0.19723   1.000
    O37     O    0.83923   0.83877   0.12394   1.000
    N38     N    0.50016   0.49995   0.49990   1.000
    O39     O    0.51075   0.51067   0.46770   1.000
    O40     O    0.46815   0.51058   0.51055   1.000
    O41     O    0.51073   0.46773   0.51063   1.000
    O42     O    0.51081   0.51083   0.51077   1.000
    N43     N    0.99967   0.00002   0.99996   1.000
    O44     O    0.98915   0.98932   0.03207   1.000
    O45     O    0.98907   0.98915   0.98913   1.000
    O46     O    0.98916   0.03213   0.98927   1.000
    O47     O    0.03158   0.98943   0.98937   1.000
loop_
    _geom_bond_atom_site_label_1
    _geom_bond_atom_site_label_2
    _geom_bond_distance
    _geom_bond_site_symmetry_2
    _ccdc_geom_bond_type
    N8     O9        2.46806      .   S
    Zr0    O9        3.45412      .   S
    N8     O10       2.28341      .   S
    Zr4    O10       3.26796  1_565   S
    N8     O11       2.46494      .   S
    Zr1    O11       3.45018      .   S
    N8     O12       2.28621      .   S
    Zr5    O12       3.27201  1_655   S
    N13    O14       2.46715      .   S
    Zr3    O14       3.45301      .   S
    N13    O15       2.28526      .   S
    Zr6    O15       3.27079  1_655   S
    N13    O16       2.28277      .   S
    Zr4    O16       3.26718  1_556   S
    N13    O17       2.46400      .   S
    Zr1    O17       3.44903      .   S
    N18    O19       2.28611      .   S
    Zr7    O19       3.27232  1_565   S
    N18    O20       2.46481      .   S
    Zr0    O20       3.45041      .   S
    N18    O21       2.28349      .   S
    Zr5    O21       3.26864      .   S
    N18    O22       2.46777      .   S
    Zr2    O22       3.45431      .   S
    N23    O24       2.46693      .   S
    Zr0    O24       3.45266      .   S
    N23    O25       2.46633      .   S
    Zr3    O25       3.45262      .   S
    N23    O26       2.28504      .   S
    Zr5    O26       3.27028  1_556   S
    N23    O27       2.28487      .   S
    Zr6    O27       3.27017  1_565   S
    N28    O29       2.28279      .   S
    Zr4    O29       3.26711      .   S
    N28    O30       2.46341      .   S
    Zr1    O30       3.44837      .   S
    N28    O31       2.46991      .   S
    Zr2    O31       3.45657      .   S
    N28    O32       2.28801      .   S
    Zr7    O32       3.27428  1_655   S
    N33    O34       2.46566      .   S
    Zr3    O34       3.45147      .   S
    N33    O35       2.46892      .   S
    Zr2    O35       3.45571      .   S
    N33    O36       2.28445      .   S
    Zr6    O36       3.26971      .   S
    N33    O37       2.28676      .   S
    Zr7    O37       3.27279  1_556   S
    N38    O39       0.49410      .   S
    Zr3    O39       1.48231      .   S
    N38    O40       0.49389      .   S
    Zr1    O40       1.48168      .   S
    N38    O41       0.49429      .   S
    Zr0    O41       1.48288      .   S
    N38    O42       0.49463      .   S
    Zr2    O42       1.48390      .   S
    N43    O44       0.49268  1_546   S
    Zr6    O44       1.47805      .   S
    N43    O45       0.49298  1_545   S
    Zr7    O45       1.47895      .   S
    N43    O46       0.49268      .   S
    Zr5    O46       1.47804      .   S
    N43    O47       0.49224  1_645   S
    Zr4    O47       1.47671      .   S
