# CIF file generated by openbabel 2.4.90, see http://openbabel.sf.net
data_I
_chemical_name_common ''
_cell_length_a 17.315
_cell_length_b 19.3
_cell_length_c 22.368
_cell_angle_alpha 90
_cell_angle_beta 90.002
_cell_angle_gamma 94.969
_space_group_name_H-M_alt 'P 1'
_space_group_name_Hall 'P 1'
loop_
    _symmetry_equiv_pos_as_xyz
    x,y,z
loop_
    _atom_site_label
    _atom_site_type_symbol
    _atom_site_fract_x
    _atom_site_fract_y
    _atom_site_fract_z
    _atom_site_occupancy
    Cd0     Cd   0.84496   0.01207   0.44376   1.000
    Cd1     Cd   0.15505   0.48790   0.94376   1.000
    Cd2     Cd   0.65505   0.48791   0.94376   1.000
    Cd3     Cd   0.15504   0.98789   0.55623   1.000
    Cd4     Cd   0.65504   0.98789   0.55623   1.000
    Cd5     Cd   0.34495   0.51206   0.05623   1.000
    Cd6     Cd   0.84495   0.51206   0.05623   1.000
    Cd7     Cd   0.34496   0.01207   0.44376   1.000
