# CIF file generated by openbabel 2.4.90, see http://openbabel.sf.net
data_I
_chemical_name_common ''
_cell_length_a 17.315
_cell_length_b 19.3
_cell_length_c 22.368
_cell_angle_alpha 90
_cell_angle_beta 90.002
_cell_angle_gamma 94.969
_space_group_name_H-M_alt 'P 1'
_space_group_name_Hall 'P 1'
loop_
    _symmetry_equiv_pos_as_xyz
    x,y,z
loop_
    _atom_site_label
    _atom_site_type_symbol
    _atom_site_fract_x
    _atom_site_fract_y
    _atom_site_fract_z
    _atom_site_occupancy
    Zr0     Zr   0.34496   0.01207   0.44376   1.000
    Zr1     Zr   0.84496   0.01207   0.44376   1.000
    Zr2     Zr   0.15505   0.48790   0.94376   1.000
    Zr3     Zr   0.65505   0.48791   0.94376   1.000
    Zr4     Zr   0.15504   0.98789   0.55623   1.000
    Zr5     Zr   0.65504   0.98789   0.55623   1.000
    Zr6     Zr   0.34495   0.51206   0.05623   1.000
    Zr7     Zr   0.84495   0.51206   0.05623   1.000
    N8      N    0.04548   0.71256   0.32954   1.000
    O9      O    0.08976   0.82792   0.42655   1.000
    N10     N    0.95450   0.78738   0.82953   1.000
    O11     O    0.91023   0.67203   0.92654   1.000
    N12     N    0.95452   0.28740   0.67044   1.000
    O13     O    0.91024   0.17204   0.57344   1.000
    N14     N    0.54550   0.21258   0.17034   1.000
    O15     O    0.58977   0.32794   0.07339   1.000
    N16     N    0.45452   0.28740   0.67044   1.000
    O17     O    0.41024   0.17204   0.57344   1.000
    N18     N    0.31823   0.22957   0.79326   1.000
    O19     O    0.34464   0.34835   0.91134   1.000
    O20     O    0.26929   0.34752   0.87204   1.000
    O21     O    0.25353   0.12820   0.69104   1.000
    N22     N    0.31822   0.72955   0.70669   1.000
    O23     O    0.26928   0.84750   0.62793   1.000
    O24     O    0.34463   0.84834   0.58863   1.000
    O25     O    0.25352   0.62819   0.80893   1.000
    N26     N    0.04550   0.21258   0.17033   1.000
    O27     O    0.08977   0.32794   0.07339   1.000
    N28     N    0.81822   0.72955   0.70669   1.000
    O29     O    0.75352   0.62819   0.80893   1.000
    O30     O    0.76928   0.84750   0.62793   1.000
    O31     O    0.84464   0.84834   0.58863   1.000
    N32     N    0.18179   0.27041   0.29328   1.000
    O33     O    0.15537   0.15163   0.41135   1.000
    O34     O    0.23072   0.15246   0.37205   1.000
    O35     O    0.24649   0.37177   0.19105   1.000
    N36     N    0.45450   0.78738   0.82953   1.000
    O37     O    0.41023   0.67203   0.92654   1.000
    N38     N    0.54548   0.71256   0.32954   1.000
    O39     O    0.58976   0.82792   0.42655   1.000
    N40     N    0.81823   0.22957   0.79328   1.000
    O41     O    0.75353   0.12820   0.69105   1.000
    O42     O    0.84464   0.34835   0.91134   1.000
    O43     O    0.76929   0.34752   0.87205   1.000
    N44     N    0.18177   0.77039   0.20670   1.000
    O45     O    0.24648   0.87176   0.30894   1.000
    O46     O    0.15536   0.65161   0.08864   1.000
    O47     O    0.23071   0.65244   0.12793   1.000
    N48     N    0.68179   0.27042   0.29328   1.000
    O49     O    0.65537   0.15163   0.41135   1.000
    O50     O    0.74649   0.37178   0.19105   1.000
    O51     O    0.73072   0.15246   0.37205   1.000
    N52     N    0.68178   0.77040   0.20670   1.000
    O53     O    0.65536   0.65162   0.08864   1.000
    O54     O    0.74648   0.87177   0.30892   1.000
    O55     O    0.73071   0.65245   0.12793   1.000
    O56     O    0.46188   0.12283   0.28766   1.000
    O57     O    0.53812   0.87714   0.71225   1.000
    O58     O    0.03812   0.87714   0.71225   1.000
    O59     O    0.03813   0.37715   0.78771   1.000
    O60     O    0.53813   0.37715   0.78771   1.000
    O61     O    0.96187   0.62281   0.21227   1.000
    O62     O    0.96188   0.12283   0.28766   1.000
    O63     O    0.46187   0.62281   0.21227   1.000
loop_
    _geom_bond_atom_site_label_1
    _geom_bond_atom_site_label_2
    _geom_bond_distance
    _geom_bond_site_symmetry_2
    _ccdc_geom_bond_type
    N8     O9        3.15549      .   S
    Zr4    O9        4.31503      .   S
    N10    O11       3.15552      .   S
    Zr7    O11       4.31516  1_554   S
    N12    O13       3.15544      .   S
    Zr1    O13       4.31495      .   S
    N14    O15       3.15455      .   S
    Zr3    O15       4.31420  1_556   S
    N16    O17       3.15543      .   S
    Zr0    O17       4.31494      .   S
    N18    O19       3.50116      .   S
    Zr6    O19       4.52596  1_554   S
    N18    O20       3.05600      .   S
    Zr2    O20       3.84142      .   S
    N18    O21       3.15138      .   S
    Zr4    O21       4.30500  1_565   S
    N22    O23       3.05575      .   S
    Zr4    O23       3.84119      .   S
    N22    O24       3.50093      .   S
    Zr0    O24       4.52591  1_545   S
    N22    O25       3.15161      .   S
    Zr2    O25       4.30508      .   S
    N26    O27       3.15450      .   S
    Zr2    O27       4.31415  1_556   S
    N28    O29       3.15160      .   S
    Zr3    O29       4.30506      .   S
    N28    O30       3.05578      .   S
    Zr5    O30       3.84120      .   S
    N28    O31       3.50095      .   S
    Zr1    O31       4.52594  1_545   S
    N32    O33       3.50108      .   S
    Zr4    O33       4.52608  1_565   S
    N32    O34       3.05588      .   S
    Zr0    O34       3.84124      .   S
    N32    O35       3.15147      .   S
    Zr6    O35       4.30493      .   S
    N36    O37       3.15553      .   S
    Zr6    O37       4.31517  1_554   S
    N38    O39       3.15544      .   S
    Zr5    O39       4.31504      .   S
    N40    O41       3.15150      .   S
    Zr5    O41       4.30511  1_565   S
    N40    O42       3.50104      .   S
    Zr7    O42       4.52586  1_554   S
    N40    O43       3.05591      .   S
    Zr3    O43       3.84137      .   S
    N44    O45       3.15159      .   S
    Zr0    O45       4.30522  1_545   S
    N44    O46       3.50093      .   S
    Zr2    O46       4.52569  1_556   S
    N44    O47       3.05585      .   S
    Zr6    O47       3.84119      .   S
    N48    O49       3.50110      .   S
    Zr5    O49       4.52610  1_565   S
    N48    O50       3.15146      .   S
    Zr7    O50       4.30492      .   S
    N48    O51       3.05588      .   S
    Zr1    O51       3.84128      .   S
    N52    O53       3.50095      .   S
    Zr3    O53       4.52571  1_556   S
    N52    O54       3.15123      .   S
    Zr1    O54       4.30555  1_545   S
    N52    O55       3.05585      .   S
    Zr7    O55       3.84124      .   S
    Zr0    O56       4.48441      .   S
    N14    O56       3.39855      .   S
    Zr5    O57       4.48308      .   S
    N36    O57       3.39764      .   S
    Zr4    O58       4.48307      .   S
    N10    O58       3.39763  1_655   S
    Zr2    O59       4.48333      .   S
    N12    O59       3.39749  1_655   S
    Zr3    O60       4.48343      .   S
    N16    O60       3.39743      .   S
    Zr7    O61       4.48321      .   S
    N8     O61       3.39742  1_455   S
    Zr1    O62       4.48452      .   S
    N26    O62       3.39851  1_455   S
    Zr6    O63       4.48326      .   S
    N38    O63       3.39746      .   S
