# CIF file generated by openbabel 2.4.90, see http://openbabel.sf.net
data_I
_chemical_name_common ''
_cell_length_a 17.315
_cell_length_b 19.3
_cell_length_c 22.368
_cell_angle_alpha 90
_cell_angle_beta 90.002
_cell_angle_gamma 94.969
_space_group_name_H-M_alt 'P 1'
_space_group_name_Hall 'P 1'
loop_
    _symmetry_equiv_pos_as_xyz
    x,y,z
loop_
    _atom_site_label
    _atom_site_type_symbol
    _atom_site_fract_x
    _atom_site_fract_y
    _atom_site_fract_z
    _atom_site_occupancy
    C0      C    0.34496   0.01207   0.44376   1.000
    C1      C    0.84496   0.01207   0.44376   1.000
    C2      C    0.15505   0.48790   0.94376   1.000
    C3      C    0.65505   0.48791   0.94376   1.000
    C4      C    0.15504   0.98789   0.55623   1.000
    C5      C    0.65504   0.98789   0.55623   1.000
    C6      C    0.34495   0.51206   0.05623   1.000
    C7      C    0.84495   0.51206   0.05623   1.000
    C8      C    0.02578   0.15637   0.44819   1.000
    C9      C    0.52577   0.15637   0.44819   1.000
    C10     C    0.49840   0.24795   0.37245   1.000
    C11     C    0.99840   0.24794   0.37245   1.000
    C12     C    0.25517   0.14415   0.37542   1.000
    C13     C    0.75517   0.14416   0.37542   1.000
    C14     C    0.20394   0.50573   0.15140   1.000
    C15     C    0.70394   0.50573   0.15140   1.000
    C16     C    0.14785   0.43050   0.23451   1.000
    C17     C    0.64785   0.43050   0.23451   1.000
    C18     C    0.29778   0.27482   0.17732   1.000
    C19     C    0.79778   0.27482   0.17732   1.000
    C20     C    0.34717   0.35619   0.09811   1.000
    C21     C    0.84717   0.35619   0.09811   1.000
    C22     C    0.06794   0.02849   0.31139   1.000
    C23     C    0.56795   0.02849   0.31140   1.000
    C24     C    0.15661   0.07967   0.22934   1.000
    C25     C    0.65661   0.07967   0.22934   1.000
    C26     C    0.39372   0.16466   0.26455   1.000
    C27     C    0.89372   0.16466   0.26455   1.000
    C28     C    0.17841   0.32968   0.96477   1.000
    C29     C    0.67841   0.32968   0.96477   1.000
    C30     C    0.14849   0.23227   0.03640   1.000
    C31     C    0.64849   0.23227   0.03640   1.000
    C32     C    0.00889   0.36863   0.13528   1.000
    C33     C    0.50889   0.36863   0.13520   1.000
    C34     C    0.04329   0.45929   0.05976   1.000
    C35     C    0.54329   0.45929   0.05976   1.000
    C36     C    0.47426   0.34364   0.94810   1.000
    C37     C    0.97426   0.34364   0.94818   1.000
    C38     C    0.00163   0.25206   0.87243   1.000
    C39     C    0.50163   0.25206   0.87243   1.000
    C40     C    0.24485   0.35583   0.87541   1.000
    C41     C    0.74485   0.35583   0.87540   1.000
    C42     C    0.29604   0.99420   0.65140   1.000
    C43     C    0.79604   0.99421   0.65142   1.000
    C44     C    0.35214   0.06947   0.73450   1.000
    C45     C    0.85214   0.06947   0.73453   1.000
    C46     C    0.20227   0.22518   0.67700   1.000
    C47     C    0.70227   0.22517   0.67730   1.000
    C48     C    0.15287   0.14380   0.59808   1.000
    C49     C    0.65287   0.14379   0.59808   1.000
    C50     C    0.43210   0.47152   0.81135   1.000
    C51     C    0.93209   0.47152   0.81136   1.000
    C52     C    0.34343   0.42035   0.72929   1.000
    C53     C    0.84343   0.42034   0.72930   1.000
    C54     C    0.10629   0.33531   0.76455   1.000
    C55     C    0.60629   0.33531   0.76455   1.000
    C56     C    0.32166   0.17032   0.46473   1.000
    C57     C    0.82166   0.17033   0.46473   1.000
    C58     C    0.35157   0.26773   0.53636   1.000
    C59     C    0.85157   0.26773   0.53636   1.000
    C60     C    0.49108   0.13133   0.63529   1.000
    C61     C    0.99108   0.13134   0.63529   1.000
    C62     C    0.45668   0.04067   0.55977   1.000
    C63     C    0.95668   0.04068   0.55977   1.000
    C64     C    0.47423   0.84360   0.55179   1.000
    C65     C    0.97423   0.84360   0.55179   1.000
    C66     C    0.00161   0.75202   0.62753   1.000
    C67     C    0.50161   0.75202   0.62753   1.000
    C68     C    0.24484   0.85581   0.62450   1.000
    C69     C    0.74484   0.85581   0.62456   1.000
    C70     C    0.29607   0.49423   0.84859   1.000
    C71     C    0.79606   0.49423   0.84850   1.000
    C72     C    0.35215   0.56946   0.76540   1.000
    C73     C    0.85215   0.56946   0.76540   1.000
    C74     C    0.20224   0.72515   0.82260   1.000
    C75     C    0.70224   0.72515   0.82260   1.000
    C76     C    0.15284   0.64378   0.90188   1.000
    C77     C    0.65284   0.64378   0.90188   1.000
    C78     C    0.43207   0.97148   0.68859   1.000
    C79     C    0.93206   0.97148   0.68859   1.000
    C80     C    0.34340   0.92031   0.77065   1.000
    C81     C    0.84340   0.92031   0.77065   1.000
    C82     C    0.10628   0.83530   0.73543   1.000
    C83     C    0.60628   0.83530   0.73543   1.000
    C84     C    0.32161   0.67029   0.03522   1.000
    C85     C    0.82161   0.67030   0.03522   1.000
    C86     C    0.35152   0.76770   0.96359   1.000
    C87     C    0.85153   0.76770   0.96359   1.000
    C88     C    0.49111   0.63133   0.86471   1.000
    C89     C    0.99111   0.63133   0.86471   1.000
    C90     C    0.45671   0.54067   0.94022   1.000
    C91     C    0.95671   0.54067   0.94022   1.000
    C92     C    0.02574   0.65632   0.05181   1.000
    C93     C    0.52574   0.65632   0.05181   1.000
    C94     C    0.49837   0.74790   0.12755   1.000
    C95     C    0.99837   0.74789   0.12756   1.000
    C96     C    0.25516   0.64413   0.12457   1.000
    C97     C    0.75516   0.64414   0.12457   1.000
    C98     C    0.20397   0.00576   0.34855   1.000
    C99     C    0.70398   0.00577   0.34855   1.000
    C100    C    0.14787   0.93049   0.26544   1.000
    C101    C    0.64787   0.93050   0.26545   1.000
    C102    C    0.29772   0.77478   0.32270   1.000
    C103    C    0.79772   0.77478   0.32270   1.000
    C104    C    0.34712   0.85616   0.40191   1.000
    C105    C    0.84713   0.85617   0.40191   1.000
    C106    C    0.06790   0.52844   0.18864   1.000
    C107    C    0.56791   0.52845   0.18862   1.000
    C108    C    0.15657   0.57961   0.27070   1.000
    C109    C    0.65657   0.57962   0.27069   1.000
    C110    C    0.39371   0.66465   0.23543   1.000
    C111    C    0.89371   0.66465   0.23544   1.000
    C112    C    0.17832   0.82963   0.53520   1.000
    C113    C    0.67834   0.82964   0.53526   1.000
    C114    C    0.14841   0.73222   0.46364   1.000
    C115    C    0.64843   0.73223   0.46363   1.000
    C116    C    0.00893   0.86863   0.36469   1.000
    C117    C    0.50892   0.86863   0.36470   1.000
    C118    C    0.04333   0.95929   0.44020   1.000
    C119    C    0.54332   0.95929   0.44022   1.000
    C120    C    0.15405   0.08972   0.46211   1.000
    C121    C    0.65405   0.08972   0.46211   1.000
    C122    C    0.14121   0.14575   0.41707   1.000
    C123    C    0.64121   0.14576   0.41707   1.000
    C124    C    0.06975   0.17537   0.41601   1.000
    C125    C    0.56975   0.17538   0.41601   1.000
    C126    C    0.05451   0.22647   0.37427   1.000
    C127    C    0.55451   0.22648   0.37427   1.000
    C128    C    0.11356   0.24835   0.33467   1.000
    C129    C    0.61356   0.24836   0.33467   1.000
    C130    C    0.18504   0.21975   0.33625   1.000
    C131    C    0.68504   0.21975   0.33625   1.000
    C132    C    0.20014   0.16768   0.37630   1.000
    C133    C    0.70014   0.16768   0.37630   1.000
    C134    C    0.23625   0.25349   0.28990   1.000
    C135    C    0.73625   0.25350   0.28990   1.000
    C136    C    0.11488   0.30031   0.28575   1.000
    C137    C    0.61488   0.30031   0.28575   1.000
    C138    C    0.22276   0.45405   0.15912   1.000
    C139    C    0.72276   0.45406   0.15912   1.000
    C140    C    0.19199   0.41230   0.20535   1.000
    C141    C    0.69199   0.41230   0.20535   1.000
    C142    C    0.21874   0.34628   0.21300   1.000
    C143    C    0.71874   0.34628   0.21300   1.000
    C144    C    0.27476   0.32505   0.17352   1.000
    C145    C    0.77476   0.32506   0.17352   1.000
    C146    C    0.30263   0.37067   0.12898   1.000
    C147    C    0.80263   0.37067   0.12898   1.000
    C148    C    0.42976   0.06488   0.34496   1.000
    C149    C    0.92976   0.06488   0.34496   1.000
    C150    C    0.47706   0.09320   0.29219   1.000
    C151    C    0.97706   0.09320   0.29219   1.000
    C152    C    0.05024   0.06907   0.28187   1.000
    C153    C    0.55025   0.06908   0.28187   1.000
    C154    C    0.09913   0.09709   0.23666   1.000
    C155    C    0.59914   0.09709   0.23666   1.000
    C156    C    0.07220   0.14946   0.20166   1.000
    C157    C    0.57221   0.14947   0.20166   1.000
    C158    C    0.49858   0.17248   0.21061   1.000
    C159    C    0.99858   0.17248   0.21061   1.000
    C160    C    0.44984   0.14528   0.25576   1.000
    C161    C    0.94984   0.14528   0.25570   1.000
    C162    C    0.11212   0.19053   0.15315   1.000
    C163    C    0.61212   0.19053   0.15315   1.000
    C164    C    0.48728   0.22834   0.16677   1.000
    C165    C    0.98728   0.22834   0.16670   1.000
    C166    C    0.14090   0.33590   0.00000   1.000
    C167    C    0.64090   0.33590   0.00000   1.000
    C168    C    0.12388   0.28159   0.04285   1.000
    C169    C    0.62388   0.28159   0.04285   1.000
    C170    C    0.07591   0.29243   0.09193   1.000
    C171    C    0.57591   0.29243   0.09193   1.000
    C172    C    0.04607   0.35727   0.09807   1.000
    C173    C    0.54607   0.35727   0.09807   1.000
    C174    C    0.06582   0.40854   0.05576   1.000
    C175    C    0.56582   0.40853   0.05576   1.000
    C176    C    0.34597   0.41026   0.96210   1.000
    C177    C    0.84597   0.41026   0.96210   1.000
    C178    C    0.35882   0.35423   0.91706   1.000
    C179    C    0.85882   0.35423   0.91706   1.000
    C180    C    0.43029   0.32462   0.91599   1.000
    C181    C    0.93029   0.32462   0.91599   1.000
    C182    C    0.44552   0.27353   0.87420   1.000
    C183    C    0.94552   0.27353   0.87426   1.000
    C184    C    0.38647   0.25164   0.83466   1.000
    C185    C    0.88647   0.25164   0.83466   1.000
    C186    C    0.31498   0.28024   0.83624   1.000
    C187    C    0.81498   0.28024   0.83624   1.000
    C188    C    0.29988   0.33231   0.87629   1.000
    C189    C    0.79988   0.33231   0.87629   1.000
    C190    C    0.26377   0.24649   0.78989   1.000
    C191    C    0.76377   0.24649   0.78989   1.000
    C192    C    0.38514   0.19968   0.78575   1.000
    C193    C    0.88515   0.19968   0.78575   1.000
    C194    C    0.27724   0.04591   0.65913   1.000
    C195    C    0.77724   0.04591   0.65913   1.000
    C196    C    0.30801   0.08767   0.70537   1.000
    C197    C    0.80801   0.08767   0.70530   1.000
    C198    C    0.28127   0.15370   0.71304   1.000
    C199    C    0.78128   0.15370   0.71304   1.000
    C200    C    0.22527   0.17493   0.67350   1.000
    C201    C    0.72527   0.17493   0.67350   1.000
    C202    C    0.19740   0.12931   0.62896   1.000
    C203    C    0.69740   0.12931   0.62897   1.000
    C204    C    0.07026   0.43511   0.84495   1.000
    C205    C    0.57026   0.43511   0.84495   1.000
    C206    C    0.02296   0.40679   0.79218   1.000
    C207    C    0.52297   0.40679   0.79218   1.000
    C208    C    0.44979   0.43093   0.78184   1.000
    C209    C    0.94979   0.43093   0.78184   1.000
    C210    C    0.40090   0.40291   0.73662   1.000
    C211    C    0.90089   0.40291   0.73663   1.000
    C212    C    0.42782   0.35053   0.70164   1.000
    C213    C    0.92782   0.35053   0.70164   1.000
    C214    C    0.00144   0.32750   0.71060   1.000
    C215    C    0.50144   0.32750   0.71060   1.000
    C216    C    0.05018   0.35470   0.75576   1.000
    C217    C    0.55018   0.35470   0.75576   1.000
    C218    C    0.38790   0.30946   0.65313   1.000
    C219    C    0.88790   0.30946   0.65313   1.000
    C220    C    0.01273   0.27163   0.66676   1.000
    C221    C    0.51274   0.27163   0.66676   1.000
    C222    C    0.35915   0.16409   0.50307   1.000
    C223    C    0.85915   0.16409   0.50307   1.000
    C224    C    0.37616   0.21840   0.54283   1.000
    C225    C    0.87616   0.21840   0.54283   1.000
    C226    C    0.42411   0.20755   0.59192   1.000
    C227    C    0.92411   0.20755   0.59190   1.000
    C228    C    0.45392   0.14270   0.59807   1.000
    C229    C    0.95392   0.14271   0.59807   1.000
    C230    C    0.43417   0.09144   0.55576   1.000
    C231    C    0.93418   0.09144   0.55576   1.000
    C232    C    0.34596   0.91024   0.53788   1.000
    C233    C    0.84596   0.91024   0.53788   1.000
    C234    C    0.35880   0.85421   0.58291   1.000
    C235    C    0.85880   0.85421   0.58291   1.000
    C236    C    0.43026   0.82459   0.58398   1.000
    C237    C    0.93027   0.82459   0.58398   1.000
    C238    C    0.44550   0.77349   0.62571   1.000
    C239    C    0.94550   0.77349   0.62571   1.000
    C240    C    0.38645   0.75161   0.66531   1.000
    C241    C    0.88645   0.75161   0.66531   1.000
    C242    C    0.31497   0.78021   0.66374   1.000
    C243    C    0.81497   0.78021   0.66374   1.000
    C244    C    0.29987   0.83228   0.62369   1.000
    C245    C    0.79987   0.83228   0.62369   1.000
    C246    C    0.26376   0.74647   0.71000   1.000
    C247    C    0.76376   0.74647   0.71008   1.000
    C248    C    0.38513   0.69965   0.71423   1.000
    C249    C    0.88513   0.69965   0.71423   1.000
    C250    C    0.27724   0.54591   0.84080   1.000
    C251    C    0.77724   0.54591   0.84080   1.000
    C252    C    0.30801   0.58766   0.79463   1.000
    C253    C    0.80801   0.58766   0.79463   1.000
    C254    C    0.28126   0.65369   0.78694   1.000
    C255    C    0.78127   0.65369   0.78694   1.000
    C256    C    0.22525   0.67491   0.82647   1.000
    C257    C    0.72525   0.67491   0.82647   1.000
    C258    C    0.19738   0.62930   0.87101   1.000
    C259    C    0.69738   0.62930   0.87101   1.000
    C260    C    0.07025   0.93509   0.65503   1.000
    C261    C    0.57025   0.93509   0.65503   1.000
    C262    C    0.02295   0.90677   0.70779   1.000
    C263    C    0.52295   0.90677   0.70779   1.000
    C264    C    0.44976   0.93090   0.71812   1.000
    C265    C    0.94976   0.93090   0.71812   1.000
    C266    C    0.40087   0.90288   0.76333   1.000
    C267    C    0.90087   0.90288   0.76333   1.000
    C268    C    0.42780   0.85050   0.79832   1.000
    C269    C    0.92780   0.85050   0.79832   1.000
    C270    C    0.00143   0.82748   0.78937   1.000
    C271    C    0.50143   0.82748   0.78937   1.000
    C272    C    0.05016   0.85468   0.74422   1.000
    C273    C    0.55016   0.85468   0.74422   1.000
    C274    C    0.38789   0.80944   0.84680   1.000
    C275    C    0.88789   0.80944   0.84684   1.000
    C276    C    0.01273   0.77162   0.83320   1.000
    C277    C    0.51273   0.77162   0.83322   1.000
    C278    C    0.35911   0.66407   0.99689   1.000
    C279    C    0.85911   0.66407   0.99689   1.000
    C280    C    0.37613   0.71838   0.95713   1.000
    C281    C    0.87613   0.71838   0.95713   1.000
    C282    C    0.42410   0.70754   0.90806   1.000
    C283    C    0.92410   0.70754   0.90806   1.000
    C284    C    0.45393   0.64270   0.90192   1.000
    C285    C    0.95393   0.64270   0.90192   1.000
    C286    C    0.43418   0.59143   0.94422   1.000
    C287    C    0.93419   0.59143   0.94422   1.000
    C288    C    0.15403   0.58970   0.03788   1.000
    C289    C    0.65403   0.58970   0.03788   1.000
    C290    C    0.14118   0.64572   0.08290   1.000
    C291    C    0.64119   0.64573   0.08292   1.000
    C292    C    0.06972   0.67533   0.08400   1.000
    C293    C    0.56972   0.67534   0.08399   1.000
    C294    C    0.05448   0.72642   0.12573   1.000
    C295    C    0.55448   0.72643   0.12573   1.000
    C296    C    0.11354   0.74831   0.16533   1.000
    C297    C    0.61354   0.74832   0.16533   1.000
    C298    C    0.18502   0.71972   0.16375   1.000
    C299    C    0.68502   0.71972   0.16375   1.000
    C300    C    0.20013   0.66765   0.12370   1.000
    C301    C    0.70013   0.66766   0.12370   1.000
    C302    C    0.23624   0.75347   0.21009   1.000
    C303    C    0.73623   0.75347   0.21009   1.000
    C304    C    0.11485   0.80027   0.21424   1.000
    C305    C    0.61486   0.80028   0.21424   1.000
    C306    C    0.22277   0.95405   0.34085   1.000
    C307    C    0.72277   0.95405   0.34085   1.000
    C308    C    0.19200   0.91229   0.29462   1.000
    C309    C    0.69200   0.91230   0.29462   1.000
    C310    C    0.21873   0.84626   0.28695   1.000
    C311    C    0.71873   0.84626   0.28694   1.000
    C312    C    0.27473   0.82503   0.32649   1.000
    C313    C    0.77473   0.82503   0.32649   1.000
    C314    C    0.30259   0.87065   0.37100   1.000
    C315    C    0.80260   0.87065   0.37102   1.000
    C316    C    0.42974   0.56485   0.15504   1.000
    C317    C    0.92974   0.56486   0.15500   1.000
    C318    C    0.47704   0.59318   0.20781   1.000
    C319    C    0.97703   0.59317   0.20781   1.000
    C320    C    0.05021   0.56903   0.21815   1.000
    C321    C    0.55022   0.56904   0.21815   1.000
    C322    C    0.09910   0.59704   0.26337   1.000
    C323    C    0.59911   0.59706   0.26330   1.000
    C324    C    0.07218   0.64943   0.29835   1.000
    C325    C    0.57218   0.64944   0.29834   1.000
    C326    C    0.49856   0.67247   0.28939   1.000
    C327    C    0.99856   0.67246   0.28939   1.000
    C328    C    0.44982   0.64526   0.24423   1.000
    C329    C    0.94982   0.64526   0.24423   1.000
    C330    C    0.11210   0.69051   0.34685   1.000
    C331    C    0.61210   0.69050   0.34686   1.000
    C332    C    0.48727   0.72834   0.33322   1.000
    C333    C    0.98726   0.72833   0.33323   1.000
    C334    C    0.14084   0.83587   0.49692   1.000
    C335    C    0.64085   0.83587   0.49691   1.000
    C336    C    0.12383   0.78156   0.45717   1.000
    C337    C    0.62384   0.78156   0.45716   1.000
    C338    C    0.07589   0.79241   0.40807   1.000
    C339    C    0.57589   0.79241   0.40807   1.000
    C340    C    0.04608   0.85726   0.40192   1.000
    C341    C    0.54608   0.85726   0.40192   1.000
    C342    C    0.06583   0.90852   0.44420   1.000
    C343    C    0.56583   0.90852   0.44423   1.000
    C344    C    0.27741   0.43421   0.12140   1.000
    C345    C    0.77741   0.43421   0.12140   1.000
    C346    C    0.19076   0.30194   0.26003   1.000
    C347    C    0.69076   0.30195   0.26003   1.000
    C348    C    0.05929   0.23943   0.13470   1.000
    C349    C    0.55929   0.23943   0.13470   1.000
    C350    C    0.11304   0.39869   0.00913   1.000
    C351    C    0.61304   0.39869   0.00913   1.000
    C352    C    0.22260   0.06577   0.62140   1.000
    C353    C    0.72261   0.06577   0.62140   1.000
    C354    C    0.30926   0.19804   0.76003   1.000
    C355    C    0.80926   0.19804   0.76003   1.000
    C356    C    0.44072   0.26055   0.63469   1.000
    C357    C    0.94072   0.26055   0.63469   1.000
    C358    C    0.38697   0.10129   0.50911   1.000
    C359    C    0.88698   0.10129   0.50911   1.000
    C360    C    0.22260   0.56576   0.87859   1.000
    C361    C    0.72260   0.56576   0.87859   1.000
    C362    C    0.30925   0.69802   0.73995   1.000
    C363    C    0.80925   0.69802   0.73995   1.000
    C364    C    0.44071   0.76054   0.86529   1.000
    C365    C    0.94071   0.76054   0.86529   1.000
    C366    C    0.38697   0.60128   0.99086   1.000
    C367    C    0.88697   0.60128   0.99086   1.000
    C368    C    0.27740   0.93420   0.37859   1.000
    C369    C    0.77740   0.93420   0.37850   1.000
    C370    C    0.19074   0.80191   0.23996   1.000
    C371    C    0.69075   0.80192   0.23996   1.000
    C372    C    0.05928   0.73941   0.36530   1.000
    C373    C    0.55928   0.73941   0.36530   1.000
    C374    C    0.11302   0.89867   0.49088   1.000
    C375    C    0.61303   0.89867   0.49087   1.000
    C376    C    0.21435   0.05695   0.45788   1.000
    C377    C    0.71435   0.05695   0.45788   1.000
    C378    C    0.10286   0.07779   0.50259   1.000
    C379    C    0.60286   0.07779   0.50259   1.000
    C380    C    0.06316   0.33440   0.26841   1.000
    C381    C    0.56316   0.33441   0.26841   1.000
    C382    C    0.30348   0.24491   0.27866   1.000
    C383    C    0.80348   0.24491   0.27866   1.000
    C384    C    0.36683   0.09158   0.35694   1.000
    C385    C    0.86682   0.09158   0.35690   1.000
    C386    C    0.45630   0.01657   0.37550   1.000
    C387    C    0.95630   0.01657   0.37550   1.000
    C388    C    0.43007   0.25865   0.15639   1.000
    C389    C    0.93007   0.25866   0.15640   1.000
    C390    C    0.17685   0.18609   0.13270   1.000
    C391    C    0.67686   0.18609   0.13279   1.000
    C392    C    0.28566   0.44302   0.95788   1.000
    C393    C    0.78566   0.44302   0.95788   1.000
    C394    C    0.39715   0.42220   0.00259   1.000
    C395    C    0.89715   0.42220   0.00259   1.000
    C396    C    0.43686   0.16558   0.76840   1.000
    C397    C    0.93686   0.16558   0.76840   1.000
    C398    C    0.19653   0.25506   0.77866   1.000
    C399    C    0.69653   0.25506   0.77866   1.000
    C400    C    0.13318   0.40840   0.85694   1.000
    C401    C    0.63319   0.40840   0.85690   1.000
    C402    C    0.04371   0.48341   0.87549   1.000
    C403    C    0.54371   0.48341   0.87549   1.000
    C404    C    0.06994   0.24133   0.65639   1.000
    C405    C    0.56994   0.24132   0.65639   1.000
    C406    C    0.32316   0.31389   0.63278   1.000
    C407    C    0.82315   0.31389   0.63278   1.000
    C408    C    0.28565   0.94300   0.54210   1.000
    C409    C    0.78565   0.94300   0.54210   1.000
    C410    C    0.39714   0.92218   0.49740   1.000
    C411    C    0.89715   0.92218   0.49740   1.000
    C412    C    0.43684   0.66555   0.73157   1.000
    C413    C    0.93685   0.66555   0.73157   1.000
    C414    C    0.19652   0.75506   0.72132   1.000
    C415    C    0.69652   0.75506   0.72132   1.000
    C416    C    0.13318   0.90839   0.64305   1.000
    C417    C    0.63318   0.90839   0.64305   1.000
    C418    C    0.04370   0.98339   0.62440   1.000
    C419    C    0.54370   0.98339   0.62440   1.000
    C420    C    0.06993   0.74132   0.84359   1.000
    C421    C    0.56993   0.74131   0.84359   1.000
    C422    C    0.32315   0.81388   0.86720   1.000
    C423    C    0.82315   0.81388   0.86720   1.000
    C424    C    0.21434   0.55694   0.04210   1.000
    C425    C    0.71434   0.55695   0.04210   1.000
    C426    C    0.10286   0.57777   0.99739   1.000
    C427    C    0.60286   0.57777   0.99739   1.000
    C428    C    0.06314   0.83437   0.23158   1.000
    C429    C    0.56314   0.83438   0.23158   1.000
    C430    C    0.30347   0.74490   0.22133   1.000
    C431    C    0.80348   0.74490   0.22133   1.000
    C432    C    0.36682   0.59157   0.14304   1.000
    C433    C    0.86682   0.59157   0.14305   1.000
    C434    C    0.45630   0.51657   0.12449   1.000
    C435    C    0.95629   0.51656   0.12449   1.000
    C436    C    0.43006   0.75864   0.34360   1.000
    C437    C    0.93006   0.75865   0.34359   1.000
    C438    C    0.17685   0.68608   0.36721   1.000
    C439    C    0.67685   0.68608   0.36720   1.000
    O440    O    0.62697   0.36729   0.00456   1.000
    O441    O    0.63239   0.30875   0.02142   1.000
    O442    O    0.65966   0.33279   0.98239   1.000
    O443    O    0.12697   0.36729   0.00456   1.000
    O444    O    0.13239   0.30875   0.02142   1.000
    O445    O    0.15965   0.33279   0.98239   1.000
    O446    O    0.37105   0.46713   0.02941   1.000
    O447    O    0.37156   0.41623   0.98235   1.000
    O448    O    0.87105   0.46713   0.02941   1.000
    O449    O    0.87156   0.41623   0.98235   1.000
    O450    O    0.58943   0.40361   0.03244   1.000
    O451    O    0.63404   0.44330   0.97645   1.000
    O452    O    0.08943   0.40361   0.03244   1.000
    O453    O    0.13404   0.44330   0.97645   1.000
    O454    O    0.34036   0.66718   0.01606   1.000
    O455    O    0.84036   0.66718   0.01606   1.000
    O456    O    0.63619   0.25693   0.03963   1.000
    O457    O    0.13618   0.25693   0.03963   1.000
    O458    O    0.18418   0.57332   0.03999   1.000
    O459    O    0.14761   0.61771   0.06039   1.000
    O460    O    0.12844   0.58373   0.01763   1.000
    O461    O    0.68419   0.57332   0.03999   1.000
    O462    O    0.64761   0.61772   0.06040   1.000
    O463    O    0.62844   0.58374   0.01763   1.000
    O464    O    0.77965   0.53450   0.04917   1.000
    O465    O    0.27964   0.53450   0.04917   1.000
    O466    O    0.59990   0.28701   0.06739   1.000
    O467    O    0.09989   0.28701   0.06739   1.000
    O468    O    0.04773   0.66582   0.06791   1.000
    O469    O    0.54773   0.66583   0.06790   1.000
    O470    O    0.05455   0.43392   0.05776   1.000
    O471    O    0.05594   0.38290   0.07691   1.000
    O472    O    0.55455   0.43391   0.05776   1.000
    O473    O    0.55594   0.38290   0.07691   1.000
    O474    O    0.31118   0.47313   0.08882   1.000
    O475    O    0.40062   0.51431   0.09036   1.000
    O476    O    0.35589   0.55182   0.09964   1.000
    O477    O    0.36596   0.55667   0.02354   1.000
    O478    O    0.81118   0.47314   0.08882   1.000
    O479    O    0.90062   0.51431   0.09036   1.000
    O480    O    0.85589   0.55182   0.09964   1.000
    O481    O    0.86596   0.55667   0.02354   1.000
    O482    O    0.10545   0.66053   0.08345   1.000
    O483    O    0.17066   0.65669   0.10330   1.000
    O484    O    0.60545   0.66054   0.08346   1.000
    O485    O    0.67066   0.65670   0.10331   1.000
    O486    O    0.56210   0.70089   0.10486   1.000
    O487    O    0.06210   0.70088   0.10487   1.000
    O488    O    0.56099   0.32485   0.09500   1.000
    O489    O    0.56760   0.26593   0.11331   1.000
    O490    O    0.06099   0.32485   0.09500   1.000
    O491    O    0.06760   0.26593   0.11331   1.000
    O492    O    0.52748   0.36295   0.11664   1.000
    O493    O    0.02748   0.36295   0.11668   1.000
    O494    O    0.32490   0.36343   0.11355   1.000
    O495    O    0.82490   0.36343   0.11355   1.000
    O496    O    0.79002   0.40244   0.12519   1.000
    O497    O    0.75008   0.44413   0.14026   1.000
    O498    O    0.29002   0.40244   0.12519   1.000
    O499    O    0.25008   0.44413   0.14026   1.000
    O500    O    0.22764   0.65589   0.12414   1.000
    O501    O    0.19257   0.69368   0.14373   1.000
    O502    O    0.72764   0.65590   0.12414   1.000
    O503    O    0.69257   0.69369   0.14373   1.000
    O504    O    0.44302   0.54071   0.13977   1.000
    O505    O    0.94302   0.54071   0.13975   1.000
    O506    O    0.02642   0.73716   0.12665   1.000
    O507    O    0.08401   0.73737   0.14553   1.000
    O508    O    0.52643   0.73717   0.12664   1.000
    O509    O    0.58401   0.73738   0.14553   1.000
    O510    O    0.28870   0.34786   0.15125   1.000
    O511    O    0.78870   0.34787   0.15125   1.000
    O512    O    0.14449   0.18831   0.14292   1.000
    O513    O    0.64449   0.18831   0.14297   1.000
    O514    O    0.58571   0.21498   0.14392   1.000
    O515    O    0.52329   0.23389   0.15073   1.000
    O516    O    0.08571   0.21498   0.14392   1.000
    O517    O    0.02328   0.23389   0.15070   1.000
    O518    O    0.39828   0.57821   0.14904   1.000
    O519    O    0.89828   0.57821   0.14903   1.000
    O520    O    0.71335   0.47989   0.15526   1.000
    O521    O    0.21335   0.47989   0.15526   1.000
    O522    O    0.09216   0.17000   0.17741   1.000
    O523    O    0.59216   0.17000   0.17741   1.000
    O524    O    0.95339   0.57901   0.18141   1.000
    O525    O    0.45339   0.57901   0.18143   1.000
    O526    O    0.45867   0.24350   0.16158   1.000
    O527    O    0.95867   0.24350   0.16155   1.000
    O528    O    0.70738   0.43318   0.18224   1.000
    O529    O    0.20738   0.43318   0.18224   1.000
    O530    O    0.14928   0.73401   0.16454   1.000
    O531    O    0.21063   0.73659   0.18692   1.000
    O532    O    0.64928   0.73402   0.16454   1.000
    O533    O    0.71063   0.73660   0.18692   1.000
    O534    O    0.11420   0.77429   0.18979   1.000
    O535    O    0.61420   0.77430   0.18979   1.000
    O536    O    0.99293   0.20041   0.18865   1.000
    O537    O    0.49293   0.20041   0.18869   1.000
    O538    O    0.78627   0.29994   0.17542   1.000
    O539    O    0.74675   0.33567   0.19326   1.000
    O540    O    0.28627   0.29994   0.17542   1.000
    O541    O    0.24675   0.33566   0.19326   1.000
    O542    O    0.55906   0.54874   0.20339   1.000
    O543    O    0.05906   0.54873   0.20340   1.000
    O544    O    0.53539   0.16097   0.20614   1.000
    O545    O    0.58567   0.12328   0.21916   1.000
    O546    O    0.03539   0.16097   0.20614   1.000
    O547    O    0.08567   0.12328   0.21916   1.000
    O548    O    0.70537   0.37929   0.20918   1.000
    O549    O    0.66992   0.42140   0.21993   1.000
    O550    O    0.20537   0.37929   0.20918   1.000
    O551    O    0.16992   0.42140   0.21993   1.000
    O552    O    0.51363   0.58111   0.21298   1.000
    O553    O    0.46343   0.61922   0.22602   1.000
    O554    O    0.01362   0.58110   0.21298   1.000
    O555    O    0.96343   0.61922   0.22602   1.000
    O556    O    0.26986   0.74918   0.21571   1.000
    O557    O    0.21349   0.77769   0.22503   1.000
    O558    O    0.76985   0.74919   0.21571   1.000
    O559    O    0.71349   0.77770   0.22503   1.000
    O560    O    0.47421   0.15888   0.23319   1.000
    O561    O    0.97421   0.15888   0.23316   1.000
    O562    O    0.70475   0.32411   0.23652   1.000
    O563    O    0.20475   0.32411   0.23652   1.000
    O564    O    0.58900   0.81733   0.22291   1.000
    O565    O    0.65280   0.80110   0.22710   1.000
    O566    O    0.08900   0.81732   0.22291   1.000
    O567    O    0.15280   0.80109   0.22710   1.000
    O568    O    0.57466   0.58305   0.24073   1.000
    O569    O    0.07465   0.58304   0.24076   1.000
    O570    O    0.62787   0.08838   0.23300   1.000
    O571    O    0.12787   0.08838   0.23300   1.000
    O572    O    0.42177   0.65496   0.23983   1.000
    O573    O    0.92177   0.65496   0.23984   1.000
    O574    O    0.07469   0.08308   0.25927   1.000
    O575    O    0.57469   0.08308   0.25927   1.000
    O576    O    0.70474   0.82409   0.26345   1.000
    O577    O    0.20474   0.82409   0.26345   1.000
    O578    O    0.97419   0.65886   0.26681   1.000
    O579    O    0.47419   0.65887   0.26681   1.000
    O580    O    0.92178   0.15497   0.26012   1.000
    O581    O    0.96345   0.11924   0.27394   1.000
    O582    O    0.42178   0.15497   0.26015   1.000
    O583    O    0.46345   0.11924   0.27397   1.000
    O584    O    0.15282   0.30112   0.27289   1.000
    O585    O    0.21351   0.27772   0.27496   1.000
    O586    O    0.65282   0.30113   0.27289   1.000
    O587    O    0.71351   0.27772   0.27496   1.000
    O588    O    0.62784   0.58834   0.26699   1.000
    O589    O    0.58565   0.62325   0.28082   1.000
    O590    O    0.12783   0.58833   0.26704   1.000
    O591    O    0.08564   0.62324   0.28086   1.000
    O592    O    0.16994   0.92139   0.28003   1.000
    O593    O    0.66994   0.92140   0.28004   1.000
    O594    O    0.08902   0.31735   0.27708   1.000
    O595    O    0.58902   0.31736   0.27708   1.000
    O596    O    0.26987   0.24920   0.28428   1.000
    O597    O    0.76987   0.24920   0.28428   1.000
    O598    O    0.51365   0.08114   0.28703   1.000
    O599    O    0.55910   0.04878   0.29663   1.000
    O600    O    0.01365   0.08114   0.28703   1.000
    O601    O    0.05909   0.04878   0.29663   1.000
    O602    O    0.11422   0.27433   0.31021   1.000
    O603    O    0.61422   0.27433   0.31021   1.000
    O604    O    0.70536   0.87928   0.29078   1.000
    O605    O    0.74673   0.83565   0.30672   1.000
    O606    O    0.20536   0.87927   0.29078   1.000
    O607    O    0.24673   0.83564   0.30672   1.000
    O608    O    0.03537   0.66095   0.29387   1.000
    O609    O    0.99291   0.70039   0.31131   1.000
    O610    O    0.53537   0.66095   0.29386   1.000
    O611    O    0.49292   0.70040   0.31130   1.000
    O612    O    0.71065   0.23662   0.31307   1.000
    O613    O    0.21065   0.23662   0.31307   1.000
    O614    O    0.95341   0.07904   0.31857   1.000
    O615    O    0.45341   0.07904   0.31857   1.000
    O616    O    0.20738   0.93317   0.31773   1.000
    O617    O    0.70739   0.93317   0.31773   1.000
    O618    O    0.59214   0.66997   0.32260   1.000
    O619    O    0.09214   0.66997   0.32260   1.000
    O620    O    0.78623   0.79991   0.32460   1.000
    O621    O    0.28622   0.79990   0.32460   1.000
    O622    O    0.78866   0.84784   0.34876   1.000
    O623    O    0.28866   0.84784   0.34874   1.000
    O624    O    0.45866   0.74349   0.33841   1.000
    O625    O    0.52328   0.73387   0.34926   1.000
    O626    O    0.95866   0.74349   0.33841   1.000
    O627    O    0.02327   0.73387   0.34927   1.000
    O628    O    0.14930   0.23405   0.33546   1.000
    O629    O    0.08404   0.23741   0.35447   1.000
    O630    O    0.64930   0.23406   0.33546   1.000
    O631    O    0.58404   0.23742   0.35447   1.000
    O632    O    0.19259   0.19371   0.35628   1.000
    O633    O    0.69259   0.19372   0.35628   1.000
    O634    O    0.21337   0.97990   0.34470   1.000
    O635    O    0.25008   0.94412   0.35972   1.000
    O636    O    0.71337   0.97991   0.34470   1.000
    O637    O    0.75009   0.94413   0.35967   1.000
    O638    O    0.89829   0.07823   0.35093   1.000
    O639    O    0.94303   0.04073   0.36023   1.000
    O640    O    0.39829   0.07823   0.35095   1.000
    O641    O    0.44303   0.04072   0.36023   1.000
    O642    O    0.08569   0.71496   0.35608   1.000
    O643    O    0.14447   0.68829   0.35703   1.000
    O644    O    0.58569   0.71496   0.35608   1.000
    O645    O    0.64447   0.68829   0.35703   1.000
    O646    O    0.85589   0.05183   0.40033   1.000
    O647    O    0.35589   0.05183   0.40035   1.000
    O648    O    0.02751   0.86294   0.38331   1.000
    O649    O    0.52750   0.86294   0.38331   1.000
    O650    O    0.06758   0.76591   0.38669   1.000
    O651    O    0.56759   0.76591   0.38669   1.000
    O652    O    0.29000   0.90242   0.37479   1.000
    O653    O    0.32486   0.86340   0.38645   1.000
    O654    O    0.79000   0.90243   0.37476   1.000
    O655    O    0.82486   0.86341   0.38647   1.000
    O656    O    0.02646   0.23721   0.37336   1.000
    O657    O    0.52646   0.23721   0.37336   1.000
    O658    O    0.06213   0.20092   0.39514   1.000
    O659    O    0.56213   0.20093   0.39514   1.000
    O660    O    0.22766   0.15591   0.37586   1.000
    O661    O    0.72766   0.15592   0.37586   1.000
    O662    O    0.90063   0.01432   0.40963   1.000
    O663    O    0.40063   0.01432   0.40963   1.000
    O664    O    0.17068   0.15672   0.39669   1.000
    O665    O    0.67068   0.15672   0.39669   1.000
    O666    O    0.81118   0.97314   0.41113   1.000
    O667    O    0.31118   0.97313   0.41117   1.000
    O668    O    0.06099   0.82483   0.40500   1.000
    O669    O    0.05596   0.88289   0.42306   1.000
    O670    O    0.56099   0.82483   0.40500   1.000
    O671    O    0.55595   0.88289   0.42308   1.000
    O672    O    0.59987   0.78699   0.43261   1.000
    O673    O    0.09986   0.78698   0.43262   1.000
    O674    O    0.10548   0.16056   0.41654   1.000
    O675    O    0.04776   0.16587   0.43210   1.000
    O676    O    0.60548   0.16057   0.41654   1.000
    O677    O    0.54776   0.16587   0.43210   1.000
    O678    O    0.14763   0.11773   0.43959   1.000
    O679    O    0.64763   0.11774   0.43959   1.000
    O680    O    0.05458   0.93391   0.44220   1.000
    O681    O    0.55458   0.93391   0.44223   1.000
    O682    O    0.77966   0.03451   0.45082   1.000
    O683    O    0.87105   0.96713   0.47058   1.000
    O684    O    0.86597   0.05668   0.47643   1.000
    O685    O    0.27965   0.03451   0.45082   1.000
    O686    O    0.37105   0.96712   0.47058   1.000
    O687    O    0.36597   0.05668   0.47643   1.000
    O688    O    0.08942   0.90360   0.46754   1.000
    O689    O    0.58943   0.90360   0.46755   1.000
    O690    O    0.63614   0.75690   0.46040   1.000
    O691    O    0.63235   0.80872   0.47704   1.000
    O692    O    0.13612   0.75689   0.46041   1.000
    O693    O    0.13234   0.80871   0.47704   1.000
    O694    O    0.68420   0.07334   0.45999   1.000
    O695    O    0.18420   0.07333   0.45999   1.000
    O696    O    0.12845   0.08375   0.48235   1.000
    O697    O    0.62846   0.08375   0.48235   1.000
    O698    O    0.84041   0.16721   0.48390   1.000
    O699    O    0.34040   0.16721   0.48390   1.000
    O700    O    0.62694   0.86727   0.49389   1.000
    O701    O    0.63404   0.94328   0.52355   1.000
    O702    O    0.12693   0.86727   0.49390   1.000
    O703    O    0.13403   0.94328   0.52355   1.000
    O704    O    0.65960   0.83275   0.51609   1.000
    O705    O    0.15958   0.83275   0.51606   1.000
    O706    O    0.87155   0.91621   0.51764   1.000
    O707    O    0.37155   0.91621   0.51764   1.000
    O708    O    0.62895   0.03284   0.52941   1.000
    O709    O    0.12895   0.03284   0.52941   1.000
    O710    O    0.37306   0.13269   0.50609   1.000
    O711    O    0.36765   0.19124   0.52295   1.000
    O712    O    0.87306   0.13269   0.50609   1.000
    O713    O    0.86765   0.19125   0.52295   1.000
    O714    O    0.91058   0.09637   0.53243   1.000
    O715    O    0.41057   0.09637   0.53243   1.000
    O716    O    0.86386   0.24307   0.53959   1.000
    O717    O    0.36387   0.24307   0.53959   1.000
    O718    O    0.31580   0.92662   0.53999   1.000
    O719    O    0.35238   0.88222   0.56039   1.000
    O720    O    0.81580   0.92662   0.53999   1.000
    O721    O    0.85238   0.88223   0.56039   1.000
    O722    O    0.72035   0.96545   0.54917   1.000
    O723    O    0.22035   0.96545   0.54917   1.000
    O724    O    0.40013   0.21297   0.56738   1.000
    O725    O    0.90013   0.21298   0.56737   1.000
    O726    O    0.95225   0.83409   0.56789   1.000
    O727    O    0.45225   0.83409   0.56789   1.000
    O728    O    0.94543   0.06606   0.55777   1.000
    O729    O    0.94405   0.11707   0.57691   1.000
    O730    O    0.44543   0.06606   0.55777   1.000
    O731    O    0.44405   0.11707   0.57691   1.000
    O732    O    0.68882   0.02683   0.58881   1.000
    O733    O    0.59937   0.98564   0.59031   1.000
    O734    O    0.64411   0.94814   0.59964   1.000
    O735    O    0.18882   0.02683   0.58881   1.000
    O736    O    0.09937   0.98564   0.59031   1.000
    O737    O    0.14411   0.94814   0.59964   1.000
    O738    O    0.39453   0.83940   0.58344   1.000
    O739    O    0.32933   0.84324   0.60330   1.000
    O740    O    0.89453   0.83940   0.58344   1.000
    O741    O    0.82933   0.84325   0.60330   1.000
    O742    O    0.43788   0.79904   0.60485   1.000
    O743    O    0.93788   0.79904   0.60485   1.000
    O744    O    0.93902   0.17513   0.59498   1.000
    O745    O    0.93241   0.23405   0.61330   1.000
    O746    O    0.43901   0.17513   0.59499   1.000
    O747    O    0.43241   0.23405   0.61330   1.000
    O748    O    0.47250   0.13702   0.61668   1.000
    O749    O    0.97250   0.13702   0.61668   1.000
    O750    O    0.67514   0.13655   0.61353   1.000
    O751    O    0.17514   0.13655   0.61352   1.000
    O752    O    0.21000   0.09754   0.62518   1.000
    O753    O    0.24992   0.05584   0.64026   1.000
    O754    O    0.71000   0.09754   0.62518   1.000
    O755    O    0.74992   0.05584   0.64026   1.000
    O756    O    0.77235   0.84405   0.62412   1.000
    O757    O    0.80742   0.80625   0.64372   1.000
    O758    O    0.27235   0.84405   0.62409   1.000
    O759    O    0.30742   0.80625   0.64372   1.000
    O760    O    0.55697   0.95924   0.63972   1.000
    O761    O    0.05697   0.95924   0.63972   1.000
    O762    O    0.97355   0.76275   0.62662   1.000
    O763    O    0.91597   0.76255   0.64551   1.000
    O764    O    0.47355   0.76275   0.62662   1.000
    O765    O    0.41597   0.76255   0.64551   1.000
    O766    O    0.21134   0.15212   0.65123   1.000
    O767    O    0.71134   0.15212   0.65124   1.000
    O768    O    0.35553   0.31167   0.64296   1.000
    O769    O    0.85553   0.31167   0.64296   1.000
    O770    O    0.91431   0.28501   0.64391   1.000
    O771    O    0.97673   0.26609   0.65072   1.000
    O772    O    0.41431   0.28500   0.64391   1.000
    O773    O    0.47673   0.26609   0.65072   1.000
    O774    O    0.10171   0.92174   0.64904   1.000
    O775    O    0.60171   0.92174   0.64904   1.000
    O776    O    0.28664   0.02006   0.65526   1.000
    O777    O    0.78664   0.02006   0.65527   1.000
    O778    O    0.40786   0.32999   0.67739   1.000
    O779    O    0.90786   0.32999   0.67739   1.000
    O780    O    0.04660   0.92093   0.68141   1.000
    O781    O    0.54660   0.92093   0.68141   1.000
    O782    O    0.04134   0.25648   0.66158   1.000
    O783    O    0.54134   0.25648   0.66158   1.000
    O784    O    0.79263   0.06679   0.68222   1.000
    O785    O    0.29262   0.06679   0.68225   1.000
    O786    O    0.85071   0.76591   0.66453   1.000
    O787    O    0.78936   0.76334   0.68691   1.000
    O788    O    0.35071   0.76591   0.66453   1.000
    O789    O    0.28936   0.76334   0.68687   1.000
    O790    O    0.88579   0.72563   0.68977   1.000
    O791    O    0.38579   0.72563   0.68977   1.000
    O792    O    0.50709   0.29957   0.68868   1.000
    O793    O    0.00709   0.29957   0.68868   1.000
    O794    O    0.21377   0.20005   0.67525   1.000
    O795    O    0.25327   0.16432   0.69327   1.000
    O796    O    0.71377   0.20005   0.67540   1.000
    O797    O    0.75327   0.16432   0.69327   1.000
    O798    O    0.94091   0.95119   0.70336   1.000
    O799    O    0.44091   0.95119   0.70336   1.000
    O800    O    0.46463   0.33901   0.70612   1.000
    O801    O    0.41436   0.37672   0.71913   1.000
    O802    O    0.96463   0.33901   0.70612   1.000
    O803    O    0.91436   0.37672   0.71914   1.000
    O804    O    0.79464   0.12069   0.70917   1.000
    O805    O    0.83008   0.07857   0.71992   1.000
    O806    O    0.29464   0.12069   0.70921   1.000
    O807    O    0.33007   0.07857   0.71994   1.000
    O808    O    0.48636   0.91883   0.71296   1.000
    O809    O    0.53656   0.88072   0.72601   1.000
    O810    O    0.98635   0.91883   0.71296   1.000
    O811    O    0.03655   0.88072   0.72601   1.000
    O812    O    0.23014   0.75076   0.71566   1.000
    O813    O    0.28650   0.72225   0.72498   1.000
    O814    O    0.73014   0.75076   0.71570   1.000
    O815    O    0.78650   0.72224   0.72501   1.000
    O816    O    0.52581   0.34110   0.73318   1.000
    O817    O    0.02581   0.34110   0.73318   1.000
    O818    O    0.29526   0.17587   0.73654   1.000
    O819    O    0.79527   0.17587   0.73654   1.000
    O820    O    0.91099   0.68260   0.72290   1.000
    O821    O    0.84719   0.69883   0.72709   1.000
    O822    O    0.41099   0.68260   0.72290   1.000
    O823    O    0.34719   0.69883   0.72709   1.000
    O824    O    0.42532   0.91689   0.74072   1.000
    O825    O    0.92532   0.91689   0.74072   1.000
    O826    O    0.37216   0.41163   0.73296   1.000
    O827    O    0.87216   0.41163   0.73296   1.000
    O828    O    0.57822   0.84499   0.73983   1.000
    O829    O    0.07822   0.84499   0.73983   1.000
    O830    O    0.42534   0.41692   0.75923   1.000
    O831    O    0.92534   0.41692   0.75924   1.000
    O832    O    0.29525   0.67585   0.76345   1.000
    O833    O    0.79526   0.67585   0.76345   1.000
    O834    O    0.52579   0.84108   0.76680   1.000
    O835    O    0.02579   0.84108   0.76680   1.000
    O836    O    0.57824   0.34501   0.76015   1.000
    O837    O    0.53657   0.38074   0.77397   1.000
    O838    O    0.07823   0.34501   0.76015   1.000
    O839    O    0.03657   0.38075   0.77397   1.000
    O840    O    0.34720   0.19886   0.77289   1.000
    O841    O    0.28651   0.22227   0.77496   1.000
    O842    O    0.84720   0.19886   0.77289   1.000
    O843    O    0.78651   0.22226   0.77496   1.000
    O844    O    0.87214   0.91159   0.76699   1.000
    O845    O    0.91434   0.87669   0.78082   1.000
    O846    O    0.37214   0.91159   0.76699   1.000
    O847    O    0.41434   0.87669   0.78082   1.000
    O848    O    0.83008   0.57856   0.78001   1.000
    O849    O    0.33008   0.57856   0.78001   1.000
    O850    O    0.41100   0.18263   0.77707   1.000
    O851    O    0.91100   0.18263   0.77707   1.000
    O852    O    0.73015   0.25078   0.78428   1.000
    O853    O    0.23015   0.25078   0.78428   1.000
    O854    O    0.98638   0.41886   0.78701   1.000
    O855    O    0.94094   0.45122   0.79660   1.000
    O856    O    0.48638   0.41886   0.78701   1.000
    O857    O    0.44094   0.45123   0.79660   1.000
    O858    O    0.38581   0.22566   0.81020   1.000
    O859    O    0.88581   0.22566   0.81020   1.000
    O860    O    0.29464   0.62067   0.79078   1.000
    O861    O    0.25326   0.66430   0.80671   1.000
    O862    O    0.79464   0.62067   0.79078   1.000
    O863    O    0.75326   0.66430   0.80671   1.000
    O864    O    0.46461   0.83899   0.79385   1.000
    O865    O    0.50708   0.79955   0.81130   1.000
    O866    O    0.96461   0.83899   0.79385   1.000
    O867    O    0.00708   0.79955   0.81129   1.000
    O868    O    0.78938   0.26336   0.81306   1.000
    O869    O    0.28938   0.26337   0.81306   1.000
    O870    O    0.04661   0.42095   0.81856   1.000
    O871    O    0.54661   0.42095   0.81856   1.000
    O872    O    0.29263   0.56679   0.81771   1.000
    O873    O    0.79263   0.56679   0.81771   1.000
    O874    O    0.40785   0.82997   0.82256   1.000
    O875    O    0.90785   0.82997   0.82258   1.000
    O876    O    0.21374   0.70003   0.82454   1.000
    O877    O    0.71374   0.70003   0.82454   1.000
    O878    O    0.71132   0.65210   0.84874   1.000
    O879    O    0.21131   0.65210   0.84874   1.000
    O880    O    0.04133   0.75647   0.83840   1.000
    O881    O    0.97672   0.76608   0.84925   1.000
    O882    O    0.54133   0.75647   0.83841   1.000
    O883    O    0.47672   0.76608   0.84925   1.000
    O884    O    0.85073   0.26594   0.83545   1.000
    O885    O    0.91600   0.26259   0.85446   1.000
    O886    O    0.35073   0.26594   0.83545   1.000
    O887    O    0.41600   0.26259   0.85443   1.000
    O888    O    0.80743   0.30627   0.85627   1.000
    O889    O    0.30743   0.30627   0.85627   1.000
    O890    O    0.28665   0.52007   0.84469   1.000
    O891    O    0.24992   0.55583   0.85970   1.000
    O892    O    0.78665   0.52007   0.84465   1.000
    O893    O    0.74992   0.55583   0.85970   1.000
    O894    O    0.60172   0.42176   0.85093   1.000
    O895    O    0.55698   0.45926   0.86022   1.000
    O896    O    0.10172   0.42176   0.85095   1.000
    O897    O    0.05698   0.45926   0.86022   1.000
    O898    O    0.41430   0.78499   0.85605   1.000
    O899    O    0.35552   0.81166   0.85700   1.000
    O900    O    0.91430   0.78499   0.85607   1.000
    O901    O    0.85552   0.81166   0.85702   1.000
    O902    O    0.64412   0.44815   0.90033   1.000
    O903    O    0.14412   0.44815   0.90035   1.000
    O904    O    0.47252   0.63701   0.88332   1.000
    O905    O    0.97252   0.63702   0.88332   1.000
    O906    O    0.93241   0.73404   0.88667   1.000
    O907    O    0.43241   0.73404   0.88667   1.000
    O908    O    0.70999   0.59753   0.87480   1.000
    O909    O    0.67511   0.63654   0.88644   1.000
    O910    O    0.20999   0.59753   0.87480   1.000
    O911    O    0.17511   0.63654   0.88644   1.000
    O912    O    0.97358   0.26280   0.87335   1.000
    O913    O    0.47358   0.26280   0.87332   1.000
    O914    O    0.43791   0.29908   0.89509   1.000
    O915    O    0.93790   0.29908   0.89512   1.000
    O916    O    0.77236   0.34407   0.87585   1.000
    O917    O    0.27237   0.34407   0.87585   1.000
    O918    O    0.09938   0.48566   0.90962   1.000
    O919    O    0.59938   0.48566   0.90962   1.000
    O920    O    0.82935   0.34327   0.89668   1.000
    O921    O    0.32935   0.34327   0.89668   1.000
    O922    O    0.68882   0.52683   0.91118   1.000
    O923    O    0.18882   0.52683   0.91118   1.000
    O924    O    0.93902   0.67512   0.90499   1.000
    O925    O    0.94406   0.61707   0.92307   1.000
    O926    O    0.43901   0.67512   0.90499   1.000
    O927    O    0.44406   0.61706   0.92307   1.000
    O928    O    0.40011   0.71296   0.93259   1.000
    O929    O    0.90011   0.71296   0.93259   1.000
    O930    O    0.89455   0.33943   0.91653   1.000
    O931    O    0.95227   0.33413   0.93208   1.000
    O932    O    0.39455   0.33943   0.91653   1.000
    O933    O    0.45227   0.33413   0.93204   1.000
    O934    O    0.85240   0.38225   0.93958   1.000
    O935    O    0.35240   0.38225   0.93958   1.000
    O936    O    0.44545   0.56605   0.94222   1.000
    O937    O    0.94545   0.56605   0.94222   1.000
    O938    O    0.72036   0.46546   0.95082   1.000
    O939    O    0.62895   0.53284   0.97058   1.000
    O940    O    0.22036   0.46546   0.95082   1.000
    O941    O    0.12895   0.53284   0.97058   1.000
    O942    O    0.91058   0.59636   0.96754   1.000
    O943    O    0.41057   0.59635   0.96754   1.000
    O944    O    0.36383   0.74304   0.96036   1.000
    O945    O    0.36762   0.69122   0.97701   1.000
    O946    O    0.86383   0.74304   0.96036   1.000
    O947    O    0.86762   0.69122   0.97701   1.000
    O948    O    0.31582   0.42664   0.95999   1.000
    O949    O    0.81582   0.42664   0.95999   1.000
    O950    O    0.87304   0.63268   0.99388   1.000
    O951    O    0.37304   0.63267   0.99388   1.000
loop_
    _geom_bond_atom_site_label_1
    _geom_bond_atom_site_label_2
    _geom_bond_distance
    _geom_bond_site_symmetry_2
    _ccdc_geom_bond_type
    C167   O440      0.67903      .   S
    C351   O440      0.67903      .   S
    C167   O441      0.71599      .   S
    C169   O441      0.71599      .   S
    C167   O442      0.51738  1_554   S
    C29    O442      0.51738      .   S
    C166   O443      0.67902      .   S
    C350   O443      0.67902      .   S
    C166   O444      0.71599      .   S
    C168   O444      0.71599      .   S
    C166   O445      0.51738  1_554   S
    C28    O445      0.51738      .   S
    C394   O446      1.17644      .   S
    C6     O446      1.17644      .   S
    C394   O447      0.63701  1_554   S
    C176   O447      0.63701      .   S
    C395   O448      1.17644      .   S
    C7     O448      1.17644      .   S
    C395   O449      0.63702  1_554   S
    C177   O449      0.63702      .   S
    C351   O450      0.67445      .   S
    C175   O450      0.67445      .   S
    C351   O451      1.16351  1_554   S
    C3     O451      1.16351      .   S
    C350   O452      0.67445      .   S
    C174   O452      0.67445      .   S
    C350   O453      1.16351  1_554   S
    C2     O453      1.16351      .   S
    C84    O454      0.54422      .   S
    C278   O454      0.54422  1_556   S
    C85    O455      0.54423      .   S
    C279   O455      0.54423  1_556   S
    C31    O456      0.54288      .   S
    C169   O456      0.54288      .   S
    C30    O457      0.54288      .   S
    C168   O457      0.54288      .   S
    C288   O458      0.63510      .   S
    C424   O458      0.63510      .   S
    C288   O459      0.75407      .   S
    C290   O459      0.75407      .   S
    C288   O460      0.63699      .   S
    C426   O460      0.63699  1_556   S
    C289   O461      0.63510      .   S
    C425   O461      0.63510      .   S
    C289   O462      0.75424      .   S
    C291   O462      0.75424      .   S
    C289   O463      0.63700      .   S
    C427   O463      0.63700  1_556   S
    C425   O464      1.25540      .   S
    C7     O464      1.25540      .   S
    C424   O465      1.25539      .   S
    C6     O465      1.25539      .   S
    C169   O466      0.70164      .   S
    C171   O466      0.70164      .   S
    C168   O467      0.70163      .   S
    C170   O467      0.70163      .   S
    C92    O468      0.54414      .   S
    C292   O468      0.54414      .   S
    C93    O469      0.54408      .   S
    C293   O469      0.54408      .   S
    C174   O470      0.54451      .   S
    C34    O470      0.54451      .   S
    C174   O471      0.69517      .   S
    C172   O471      0.69517      .   S
    C175   O472      0.54452      .   S
    C35    O472      0.54452      .   S
    C175   O473      0.69517      .   S
    C173   O473      0.69517      .   S
    C6     O474      1.16684      .   S
    C344   O474      1.16684      .   S
    C6     O475      1.22744      .   S
    C434   O475      1.22744      .   S
    C6     O476      1.24179      .   S
    C432   O476      1.24179      .   S
    C6     O477      1.16353      .   S
    C366   O477      1.16353  1_556   S
    C7     O478      1.16684      .   S
    C345   O478      1.16684      .   S
    C7     O479      1.22740      .   S
    C435   O479      1.22740      .   S
    C7     O480      1.24182      .   S
    C433   O480      1.24182      .   S
    C7     O481      1.16352      .   S
    C367   O481      1.16352  1_556   S
    C290   O482      0.70374      .   S
    C292   O482      0.70374      .   S
    C290   O483      0.70333      .   S
    C300   O483      0.70333      .   S
    C291   O484      0.70373      .   S
    C293   O484      0.70373      .   S
    C291   O485      0.70318      .   S
    C301   O485      0.70318      .   S
    C293   O486      0.69979      .   S
    C295   O486      0.69979      .   S
    C292   O487      0.69971      .   S
    C294   O487      0.69971      .   S
    C171   O488      0.70066      .   S
    C173   O488      0.70066      .   S
    C171   O489      0.70593      .   S
    C349   O489      0.70593      .   S
    C170   O490      0.70066      .   S
    C172   O490      0.70066      .   S
    C170   O491      0.70593      .   S
    C348   O491      0.70593      .   S
    C173   O492      0.54240      .   S
    C33    O492      0.54240      .   S
    C172   O493      0.54308      .   S
    C32    O493      0.54308      .   S
    C20    O494      0.54479      .   S
    C146   O494      0.54479      .   S
    C21    O495      0.54479      .   S
    C147   O495      0.54479      .   S
    C345   O496      0.67377      .   S
    C147   O496      0.67377      .   S
    C345   O497      0.67394      .   S
    C139   O497      0.67394      .   S
    C344   O498      0.67378      .   S
    C146   O498      0.67378      .   S
    C344   O499      0.67394      .   S
    C138   O499      0.67394      .   S
    C300   O500      0.54528      .   S
    C96    O500      0.54528      .   S
    C300   O501      0.69393      .   S
    C298   O501      0.69393      .   S
    C301   O502      0.54528      .   S
    C97    O502      0.54528      .   S
    C301   O503      0.69393      .   S
    C299   O503      0.69393      .   S
    C434   O504      0.63661      .   S
    C316   O504      0.63661      .   S
    C435   O505      0.63642      .   S
    C317   O505      0.63642      .   S
    C294   O506      0.54473      .   S
    C95    O506      0.54473  1_655   S
    C294   O507      0.69530      .   S
    C296   O507      0.69530      .   S
    C295   O508      0.54473      .   S
    C94    O508      0.54473      .   S
    C295   O509      0.69530      .   S
    C297   O509      0.69530      .   S
    C146   O510      0.69406      .   S
    C144   O510      0.69406      .   S
    C147   O511      0.69406      .   S
    C145   O511      0.69406      .   S
    C390   O512      0.61026      .   S
    C162   O512      0.61026      .   S
    C391   O513      0.60990      .   S
    C163   O513      0.60990      .   S
    C349   O514      0.71538      .   S
    C163   O514      0.71538      .   S
    C349   O515      0.71921      .   S
    C164   O515      0.71921      .   S
    C348   O516      0.71538      .   S
    C162   O516      0.71538      .   S
    C348   O517      0.71882      .   S
    C165   O517      0.71882  1_655   S
    C432   O518      0.63683      .   S
    C316   O518      0.63683      .   S
    C433   O519      0.63673      .   S
    C317   O519      0.63673      .   S
    C15    O520      0.54477      .   S
    C139   O520      0.54477      .   S
    C14    O521      0.54476      .   S
    C138   O521      0.54476      .   S
    C162   O522      0.73966      .   S
    C156   O522      0.73966      .   S
    C163   O523      0.73964      .   S
    C157   O523      0.73964      .   S
    C317   O524      0.75614      .   S
    C319   O524      0.75614      .   S
    C316   O525      0.75584      .   S
    C318   O525      0.75584      .   S
    C388   O526      0.60780      .   S
    C164   O526      0.60780      .   S
    C389   O527      0.60764      .   S
    C165   O527      0.60764      .   S
    C139   O528      0.69430      .   S
    C141   O528      0.69430      .   S
    C138   O529      0.69430      .   S
    C140   O529      0.69430      .   S
    C298   O530      0.69933      .   S
    C296   O530      0.69933      .   S
    C298   O531      0.73910      .   S
    C302   O531      0.73910      .   S
    C299   O532      0.69933      .   S
    C297   O532      0.69933      .   S
    C299   O533      0.73908      .   S
    C303   O533      0.73908      .   S
    C296   O534      0.74147      .   S
    C304   O534      0.74147      .   S
    C297   O535      0.74148      .   S
    C305   O535      0.74148      .   S
    C165   O536      0.74190      .   S
    C159   O536      0.74190      .   S
    C164   O537      0.74139      .   S
    C158   O537      0.74139      .   S
    C145   O538      0.54153      .   S
    C19    O538      0.54153      .   S
    C145   O539      0.69954      .   S
    C143   O539      0.69954      .   S
    C144   O540      0.54153      .   S
    C18    O540      0.54153      .   S
    C144   O541      0.69954      .   S
    C142   O541      0.69954      .   S
    C107   O542      0.54437      .   S
    C321   O542      0.54437      .   S
    C106   O543      0.54427      .   S
    C320   O543      0.54427      .   S
    C157   O544      0.70015      .   S
    C158   O544      0.70015      .   S
    C157   O545      0.69531      .   S
    C155   O545      0.69531      .   S
    C156   O546      0.70013      .   S
    C159   O546      0.70013  1_655   S
    C156   O547      0.69532      .   S
    C154   O547      0.69532      .   S
    C141   O548      0.70173      .   S
    C143   O548      0.70173      .   S
    C141   O549      0.54305      .   S
    C17    O549      0.54305      .   S
    C140   O550      0.70173      .   S
    C142   O550      0.70173      .   S
    C140   O551      0.54305      .   S
    C16    O551      0.54305      .   S
    C318   O552      0.70326      .   S
    C321   O552      0.70326      .   S
    C318   O553      0.70327      .   S
    C328   O553      0.70327      .   S
    C319   O554      0.70325  1_655   S
    C320   O554      0.70325      .   S
    C319   O555      0.70327      .   S
    C329   O555      0.70327      .   S
    C302   O556      0.60815      .   S
    C430   O556      0.60815      .   S
    C302   O557      0.71915      .   S
    C370   O557      0.71915      .   S
    C303   O558      0.60816      .   S
    C431   O558      0.60816      .   S
    C303   O559      0.71916      .   S
    C371   O559      0.71916      .   S
    C158   O560      0.69479      .   S
    C160   O560      0.69479      .   S
    C159   O561      0.69430      .   S
    C161   O561      0.69430      .   S
    C143   O562      0.70741      .   S
    C347   O562      0.70741      .   S
    C142   O563      0.70742      .   S
    C346   O563      0.70742      .   S
    C305   O564      0.60980      .   S
    C429   O564      0.60980      .   S
    C305   O565      0.71613      .   S
    C371   O565      0.71613      .   S
    C304   O566      0.60981      .   S
    C428   O566      0.60981      .   S
    C304   O567      0.71613      .   S
    C370   O567      0.71613      .   S
    C321   O568      0.69817      .   S
    C323   O568      0.69817      .   S
    C320   O569      0.69869      .   S
    C322   O569      0.69869      .   S
    C25    O570      0.54501      .   S
    C155   O570      0.54501      .   S
    C24    O571      0.54501      .   S
    C154   O571      0.54501      .   S
    C110   O572      0.54448      .   S
    C328   O572      0.54448      .   S
    C111   O573      0.54447      .   S
    C329   O573      0.54447      .   S
    C154   O574      0.69863      .   S
    C152   O574      0.69863      .   S
    C155   O575      0.69864      .   S
    C153   O575      0.69864      .   S
    C371   O576      0.70701      .   S
    C311   O576      0.70701      .   S
    C370   O577      0.70710      .   S
    C310   O577      0.70710      .   S
    C329   O578      0.69484      .   S
    C327   O578      0.69484      .   S
    C328   O579      0.69486      .   S
    C326   O579      0.69486      .   S
    C161   O580      0.54460      .   S
    C27    O580      0.54460      .   S
    C161   O581      0.70367      .   S
    C151   O581      0.70367      .   S
    C160   O582      0.54448      .   S
    C26    O582      0.54448      .   S
    C160   O583      0.70328      .   S
    C150   O583      0.70328      .   S
    C346   O584      0.71613      .   S
    C136   O584      0.71613      .   S
    C346   O585      0.71914      .   S
    C134   O585      0.71914      .   S
    C347   O586      0.71613      .   S
    C137   O586      0.71613      .   S
    C347   O587      0.71915      .   S
    C135   O587      0.71915      .   S
    C323   O588      0.54511      .   S
    C109   O588      0.54511      .   S
    C323   O589      0.69561      .   S
    C325   O589      0.69561      .   S
    C322   O590      0.54501      .   S
    C108   O590      0.54501      .   S
    C322   O591      0.69527      .   S
    C324   O591      0.69527      .   S
    C100   O592      0.54308      .   S
    C308   O592      0.54308      .   S
    C101   O593      0.54301      .   S
    C309   O593      0.54301      .   S
    C380   O594      0.60981      .   S
    C136   O594      0.60981      .   S
    C381   O595      0.60980      .   S
    C137   O595      0.60980      .   S
    C382   O596      0.60814      .   S
    C134   O596      0.60814      .   S
    C383   O597      0.60814      .   S
    C135   O597      0.60814      .   S
    C153   O598      0.70325      .   S
    C150   O598      0.70325      .   S
    C153   O599      0.54434      .   S
    C23    O599      0.54434      .   S
    C152   O600      0.70325      .   S
    C151   O600      0.70325  1_655   S
    C152   O601      0.54429      .   S
    C22    O601      0.54429      .   S
    C136   O602      0.74150      .   S
    C128   O602      0.74150      .   S
    C137   O603      0.74151      .   S
    C129   O603      0.74151      .   S
    C311   O604      0.70180      .   S
    C309   O604      0.70180      .   S
    C311   O605      0.69991      .   S
    C313   O605      0.69991      .   S
    C310   O606      0.70178      .   S
    C308   O606      0.70178      .   S
    C310   O607      0.69983      .   S
    C312   O607      0.69983      .   S
    C327   O608      0.70014  1_655   S
    C324   O608      0.70014      .   S
    C327   O609      0.74144      .   S
    C333   O609      0.74144      .   S
    C326   O610      0.70014      .   S
    C325   O610      0.70014      .   S
    C326   O611      0.74140      .   S
    C332   O611      0.74140      .   S
    C135   O612      0.73914      .   S
    C131   O612      0.73914      .   S
    C134   O613      0.73915      .   S
    C130   O613      0.73915      .   S
    C151   O614      0.75587      .   S
    C149   O614      0.75587      .   S
    C150   O615      0.75589      .   S
    C148   O615      0.75589      .   S
    C308   O616      0.69432      .   S
    C306   O616      0.69432      .   S
    C309   O617      0.69431      .   S
    C307   O617      0.69431      .   S
    C325   O618      0.73969      .   S
    C331   O618      0.73969      .   S
    C324   O619      0.73961      .   S
    C330   O619      0.73961      .   S
    C103   O620      0.54153      .   S
    C313   O620      0.54153      .   S
    C102   O621      0.54153      .   S
    C312   O621      0.54153      .   S
    C313   O622      0.69399      .   S
    C315   O622      0.69399      .   S
    C312   O623      0.69384      .   S
    C314   O623      0.69384      .   S
    C332   O624      0.60778      .   S
    C436   O624      0.60778      .   S
    C332   O625      0.71920      .   S
    C373   O625      0.71920      .   S
    C333   O626      0.60777      .   S
    C437   O626      0.60777      .   S
    C333   O627      0.71918  1_655   S
    C372   O627      0.71918      .   S
    C128   O628      0.69933      .   S
    C130   O628      0.69933      .   S
    C128   O629      0.69528      .   S
    C126   O629      0.69528      .   S
    C129   O630      0.69933      .   S
    C131   O630      0.69933      .   S
    C129   O631      0.69528      .   S
    C127   O631      0.69528      .   S
    C130   O632      0.69396      .   S
    C132   O632      0.69396      .   S
    C131   O633      0.69396      .   S
    C133   O633      0.69396      .   S
    C306   O634      0.54496      .   S
    C98    O634      0.54496  1_545   S
    C306   O635      0.67396      .   S
    C368   O635      0.67396      .   S
    C307   O636      0.54496      .   S
    C99    O636      0.54496  1_545   S
    C307   O637      0.67334      .   S
    C369   O637      0.67334      .   S
    C149   O638      0.63673      .   S
    C385   O638      0.63673      .   S
    C149   O639      0.63662      .   S
    C387   O639      0.63662      .   S
    C148   O640      0.63682      .   S
    C384   O640      0.63682      .   S
    C148   O641      0.63660      .   S
    C386   O641      0.63660      .   S
    C330   O642      0.71539      .   S
    C372   O642      0.71539      .   S
    C330   O643      0.60995      .   S
    C438   O643      0.60995      .   S
    C331   O644      0.71538      .   S
    C373   O644      0.71538      .   S
    C331   O645      0.60991      .   S
    C439   O645      0.60991      .   S
    C385   O646      1.24220      .   S
    C1     O646      1.24220      .   S
    C384   O647      1.24187      .   S
    C0     O647      1.24187      .   S
    C116   O648      0.54314      .   S
    C340   O648      0.54314      .   S
    C117   O649      0.54307      .   S
    C341   O649      0.54307      .   S
    C372   O650      0.70593      .   S
    C338   O650      0.70593      .   S
    C373   O651      0.70592      .   S
    C339   O651      0.70592      .   S
    C314   O652      0.67383      .   S
    C368   O652      0.67383      .   S
    C314   O653      0.54497      .   S
    C104   O653      0.54497      .   S
    C315   O654      0.67367      .   S
    C369   O654      0.67367      .   S
    C315   O655      0.54484      .   S
    C105   O655      0.54484      .   S
    C11    O656      0.54472  1_655   S
    C126   O656      0.54472      .   S
    C10    O657      0.54473      .   S
    C127   O657      0.54473      .   S
    C126   O658      0.69981      .   S
    C124   O658      0.69981      .   S
    C127   O659      0.69980      .   S
    C125   O659      0.69980      .   S
    C12    O660      0.54528      .   S
    C132   O660      0.54528      .   S
    C13    O661      0.54528      .   S
    C133   O661      0.54528      .   S
    C387   O662      1.22744      .   S
    C1     O662      1.22744      .   S
    C386   O663      1.22745      .   S
    C0     O663      1.22745      .   S
    C132   O664      0.70310      .   S
    C122   O664      0.70310      .   S
    C133   O665      0.70309      .   S
    C123   O665      0.70309      .   S
    C369   O666      1.16763      .   S
    C1     O666      1.16763  1_545   S
    C368   O667      1.16701      .   S
    C0     O667      1.16701  1_545   S
    C340   O668      0.70064      .   S
    C338   O668      0.70064      .   S
    C340   O669      0.69492      .   S
    C342   O669      0.69492      .   S
    C341   O670      0.70064      .   S
    C339   O670      0.70064      .   S
    C341   O671      0.69516      .   S
    C343   O671      0.69516      .   S
    C339   O672      0.70159      .   S
    C337   O672      0.70159      .   S
    C338   O673      0.70164      .   S
    C336   O673      0.70164      .   S
    C124   O674      0.70373      .   S
    C122   O674      0.70373      .   S
    C124   O675      0.54405      .   S
    C8     O675      0.54405      .   S
    C125   O676      0.70373      .   S
    C123   O676      0.70373      .   S
    C125   O677      0.54406      .   S
    C9     O677      0.54406      .   S
    C122   O678      0.75429      .   S
    C120   O678      0.75429      .   S
    C123   O679      0.75430      .   S
    C121   O679      0.75430      .   S
    C118   O680      0.54450      .   S
    C342   O680      0.54450      .   S
    C119   O681      0.54451      .   S
    C343   O681      0.54451      .   S
    C1     O682      1.25540      .   S
    C377   O682      1.25540      .   S
    C1     O683      1.17659  1_545   S
    C411   O683      1.17659      .   S
    C1     O684      1.16341      .   S
    C359   O684      1.16341      .   S
    C0     O685      1.25540      .   S
    C376   O685      1.25540      .   S
    C0     O686      1.17658  1_545   S
    C410   O686      1.17658      .   S
    C0     O687      1.16340      .   S
    C358   O687      1.16340      .   S
    C342   O688      0.67474      .   S
    C374   O688      0.67474      .   S
    C343   O689      0.67441      .   S
    C375   O689      0.67441      .   S
    C337   O690      0.54289      .   S
    C115   O690      0.54289      .   S
    C337   O691      0.69324      .   S
    C335   O691      0.69324      .   S
    C336   O692      0.54289      .   S
    C114   O692      0.54289      .   S
    C336   O693      0.69324      .   S
    C334   O693      0.69324      .   S
    C377   O694      0.63510      .   S
    C121   O694      0.63510      .   S
    C376   O695      0.63510      .   S
    C120   O695      0.63510      .   S
    C120   O696      0.63699      .   S
    C378   O696      0.63699      .   S
    C121   O697      0.63700      .   S
    C379   O697      0.63700      .   S
    C57    O698      0.54421      .   S
    C223   O698      0.54421      .   S
    C56    O699      0.54421      .   S
    C222   O699      0.54421      .   S
    C375   O700      0.67464      .   S
    C335   O700      0.67464      .   S
    C375   O701      1.16349      .   S
    C5     O701      1.16349      .   S
    C374   O702      0.67463      .   S
    C334   O702      0.67463      .   S
    C374   O703      1.16344      .   S
    C4     O703      1.16344      .   S
    C335   O704      0.54430      .   S
    C113   O704      0.54430      .   S
    C334   O705      0.54366      .   S
    C112   O705      0.54366      .   S
    C411   O706      0.63702      .   S
    C233   O706      0.63702      .   S
    C410   O707      0.63702      .   S
    C232   O707      0.63702      .   S
    C379   O708      1.17661      .   S
    C5     O708      1.17661  1_565   S
    C378   O709      1.17661      .   S
    C4     O709      1.17661  1_565   S
    C222   O710      0.67465      .   S
    C358   O710      0.67465      .   S
    C222   O711      0.69331      .   S
    C224   O711      0.69331      .   S
    C223   O712      0.67464      .   S
    C359   O712      0.67464      .   S
    C223   O713      0.69331      .   S
    C225   O713      0.69331      .   S
    C359   O714      0.67451      .   S
    C231   O714      0.67451      .   S
    C358   O715      0.67450      .   S
    C230   O715      0.67450      .   S
    C59    O716      0.54289      .   S
    C225   O716      0.54289      .   S
    C58    O717      0.54289      .   S
    C224   O717      0.54289      .   S
    C232   O718      0.63509      .   S
    C408   O718      0.63509      .   S
    C232   O719      0.75421      .   S
    C234   O719      0.75421      .   S
    C233   O720      0.63510      .   S
    C409   O720      0.63510      .   S
    C233   O721      0.75421      .   S
    C235   O721      0.75421      .   S
    C409   O722      1.25541      .   S
    C5     O722      1.25541      .   S
    C408   O723      1.25541      .   S
    C4     O723      1.25541      .   S
    C224   O724      0.70159      .   S
    C226   O724      0.70159      .   S
    C225   O725      0.70142      .   S
    C227   O725      0.70142      .   S
    C65    O726      0.54413      .   S
    C237   O726      0.54413      .   S
    C64    O727      0.54414      .   S
    C236   O727      0.54414      .   S
    C231   O728      0.54451      .   S
    C63    O728      0.54451      .   S
    C231   O729      0.69515      .   S
    C229   O729      0.69515      .   S
    C230   O730      0.54452      .   S
    C62    O730      0.54452      .   S
    C230   O731      0.69515      .   S
    C228   O731      0.69515      .   S
    C5     O732      1.16700  1_565   S
    C353   O732      1.16700      .   S
    C5     O733      1.22684      .   S
    C419   O733      1.22684      .   S
    C5     O734      1.24184      .   S
    C417   O734      1.24184      .   S
    C4     O735      1.16701  1_565   S
    C352   O735      1.16701      .   S
    C4     O736      1.22684      .   S
    C418   O736      1.22684      .   S
    C4     O737      1.24183      .   S
    C416   O737      1.24183      .   S
    C234   O738      0.70373      .   S
    C236   O738      0.70373      .   S
    C234   O739      0.70316      .   S
    C244   O739      0.70316      .   S
    C235   O740      0.70374      .   S
    C237   O740      0.70374      .   S
    C235   O741      0.70316      .   S
    C245   O741      0.70316      .   S
    C236   O742      0.69973      .   S
    C238   O742      0.69973      .   S
    C237   O743      0.69973      .   S
    C239   O743      0.69973      .   S
    C227   O744      0.70067      .   S
    C229   O744      0.70067      .   S
    C227   O745      0.70608      .   S
    C357   O745      0.70608      .   S
    C226   O746      0.70064      .   S
    C228   O746      0.70064      .   S
    C226   O747      0.70593      .   S
    C356   O747      0.70593      .   S
    C228   O748      0.54307      .   S
    C60    O748      0.54307      .   S
    C229   O749      0.54308      .   S
    C61    O749      0.54308      .   S
    C49    O750      0.54487      .   S
    C203   O750      0.54487      .   S
    C48    O751      0.54478      .   S
    C202   O751      0.54478      .   S
    C352   O752      0.67377      .   S
    C202   O752      0.67377      .   S
    C352   O753      0.67392      .   S
    C194   O753      0.67392      .   S
    C353   O754      0.67378      .   S
    C203   O754      0.67378      .   S
    C353   O755      0.67392      .   S
    C195   O755      0.67392      .   S
    C245   O756      0.54528      .   S
    C69    O756      0.54528      .   S
    C245   O757      0.69396      .   S
    C243   O757      0.69396      .   S
    C244   O758      0.54527      .   S
    C68    O758      0.54527      .   S
    C244   O759      0.69395      .   S
    C242   O759      0.69395      .   S
    C419   O760      0.63714      .   S
    C261   O760      0.63714      .   S
    C418   O761      0.63715      .   S
    C260   O761      0.63715      .   S
    C239   O762      0.54472      .   S
    C66    O762      0.54472  1_455   S
    C239   O763      0.69527      .   S
    C241   O763      0.69527      .   S
    C238   O764      0.54473      .   S
    C67    O764      0.54473      .   S
    C238   O765      0.69527      .   S
    C240   O765      0.69527      .   S
    C202   O766      0.69407      .   S
    C200   O766      0.69407      .   S
    C203   O767      0.69399      .   S
    C201   O767      0.69399      .   S
    C406   O768      0.60989      .   S
    C218   O768      0.60989      .   S
    C407   O769      0.60991      .   S
    C219   O769      0.60991      .   S
    C357   O770      0.71537      .   S
    C219   O770      0.71537      .   S
    C357   O771      0.71916      .   S
    C220   O771      0.71916  1_455   S
    C356   O772      0.71537      .   S
    C218   O772      0.71537      .   S
    C356   O773      0.71919      .   S
    C221   O773      0.71919      .   S
    C416   O774      0.63681      .   S
    C260   O774      0.63681      .   S
    C417   O775      0.63682      .   S
    C261   O775      0.63682      .   S
    C42    O776      0.54501  1_565   S
    C194   O776      0.54501      .   S
    C43    O777      0.54497  1_565   S
    C195   O777      0.54497      .   S
    C218   O778      0.73967      .   S
    C212   O778      0.73967      .   S
    C219   O779      0.73964      .   S
    C213   O779      0.73964      .   S
    C260   O780      0.75580      .   S
    C262   O780      0.75580      .   S
    C261   O781      0.75580      .   S
    C263   O781      0.75580      .   S
    C404   O782      0.60777      .   S
    C220   O782      0.60777      .   S
    C405   O783      0.60778      .   S
    C221   O783      0.60778      .   S
    C195   O784      0.69380      .   S
    C197   O784      0.69380      .   S
    C194   O785      0.69438      .   S
    C196   O785      0.69438      .   S
    C243   O786      0.69933      .   S
    C241   O786      0.69933      .   S
    C243   O787      0.73906      .   S
    C247   O787      0.73906      .   S
    C242   O788      0.69933      .   S
    C240   O788      0.69933      .   S
    C242   O789      0.73843      .   S
    C246   O789      0.73843      .   S
    C241   O790      0.74152      .   S
    C249   O790      0.74152      .   S
    C240   O791      0.74154      .   S
    C248   O791      0.74154      .   S
    C221   O792      0.74143      .   S
    C215   O792      0.74143      .   S
    C220   O793      0.74144      .   S
    C214   O793      0.74144      .   S
    C200   O794      0.54129      .   S
    C46    O794      0.54129      .   S
    C200   O795      0.69986      .   S
    C198   O795      0.69986      .   S
    C201   O796      0.54154      .   S
    C47    O796      0.54154      .   S
    C201   O797      0.69987      .   S
    C199   O797      0.69987      .   S
    C79    O798      0.54435      .   S
    C265   O798      0.54435      .   S
    C78    O799      0.54436      .   S
    C264   O799      0.54436      .   S
    C212   O800      0.70015      .   S
    C215   O800      0.70015      .   S
    C212   O801      0.69527      .   S
    C210   O801      0.69527      .   S
    C213   O802      0.70014      .   S
    C214   O802      0.70014  1_455   S
    C213   O803      0.69531      .   S
    C211   O803      0.69531      .   S
    C197   O804      0.70187      .   S
    C199   O804      0.70187      .   S
    C197   O805      0.54344      .   S
    C45    O805      0.54344      .   S
    C196   O806      0.70178      .   S
    C198   O806      0.70178      .   S
    C196   O807      0.54276      .   S
    C44    O807      0.54276      .   S
    C263   O808      0.70326      .   S
    C264   O808      0.70326      .   S
    C263   O809      0.70330      .   S
    C273   O809      0.70330      .   S
    C262   O810      0.70325  1_455   S
    C265   O810      0.70325      .   S
    C262   O811      0.70330      .   S
    C272   O811      0.70330      .   S
    C246   O812      0.60834      .   S
    C414   O812      0.60834      .   S
    C246   O813      0.71957      .   S
    C362   O813      0.71957      .   S
    C247   O814      0.60814      .   S
    C415   O814      0.60814      .   S
    C247   O815      0.71915      .   S
    C363   O815      0.71915      .   S
    C215   O816      0.69485      .   S
    C217   O816      0.69485      .   S
    C214   O817      0.69486      .   S
    C216   O817      0.69486      .   S
    C198   O818      0.70709      .   S
    C354   O818      0.70709      .   S
    C199   O819      0.70709      .   S
    C355   O819      0.70709      .   S
    C249   O820      0.60982      .   S
    C413   O820      0.60982      .   S
    C249   O821      0.71613      .   S
    C363   O821      0.71613      .   S
    C248   O822      0.60981      .   S
    C412   O822      0.60981      .   S
    C248   O823      0.71612      .   S
    C362   O823      0.71612      .   S
    C264   O824      0.69864      .   S
    C266   O824      0.69864      .   S
    C265   O825      0.69865      .   S
    C267   O825      0.69865      .   S
    C52    O826      0.54501      .   S
    C210   O826      0.54501      .   S
    C53    O827      0.54501      .   S
    C211   O827      0.54501      .   S
    C83    O828      0.54448      .   S
    C273   O828      0.54448      .   S
    C82    O829      0.54448      .   S
    C272   O829      0.54448      .   S
    C210   O830      0.69871      .   S
    C208   O830      0.69871      .   S
    C211   O831      0.69864      .   S
    C209   O831      0.69864      .   S
    C362   O832      0.70707      .   S
    C254   O832      0.70707      .   S
    C363   O833      0.70708      .   S
    C255   O833      0.70708      .   S
    C273   O834      0.69480      .   S
    C271   O834      0.69480      .   S
    C272   O835      0.69479      .   S
    C270   O835      0.69479      .   S
    C217   O836      0.54446      .   S
    C55    O836      0.54446      .   S
    C217   O837      0.70328      .   S
    C207   O837      0.70328      .   S
    C216   O838      0.54446      .   S
    C54    O838      0.54446      .   S
    C216   O839      0.70327      .   S
    C206   O839      0.70327      .   S
    C354   O840      0.71612      .   S
    C192   O840      0.71612      .   S
    C354   O841      0.71912      .   S
    C190   O841      0.71912      .   S
    C355   O842      0.71613      .   S
    C193   O842      0.71613      .   S
    C355   O843      0.71911      .   S
    C191   O843      0.71911      .   S
    C267   O844      0.54501      .   S
    C81    O844      0.54501      .   S
    C267   O845      0.69526      .   S
    C269   O845      0.69526      .   S
    C266   O846      0.54501      .   S
    C80    O846      0.54501      .   S
    C266   O847      0.69526      .   S
    C268   O847      0.69526      .   S
    C73    O848      0.54351      .   S
    C253   O848      0.54351      .   S
    C72    O849      0.54351      .   S
    C252   O849      0.54351      .   S
    C396   O850      0.60984      .   S
    C192   O850      0.60984      .   S
    C397   O851      0.60985      .   S
    C193   O851      0.60985      .   S
    C399   O852      0.60813      .   S
    C191   O852      0.60813      .   S
    C398   O853      0.60814      .   S
    C190   O853      0.60814      .   S
    C209   O854      0.70325      .   S
    C206   O854      0.70325  1_455   S
    C209   O855      0.54432      .   S
    C51    O855      0.54432      .   S
    C208   O856      0.70326      .   S
    C207   O856      0.70326      .   S
    C208   O857      0.54427      .   S
    C50    O857      0.54427      .   S
    C192   O858      0.74150      .   S
    C184   O858      0.74150      .   S
    C193   O859      0.74148      .   S
    C185   O859      0.74148      .   S
    C254   O860      0.70179      .   S
    C252   O860      0.70179      .   S
    C254   O861      0.69987      .   S
    C256   O861      0.69987      .   S
    C255   O862      0.70178      .   S
    C253   O862      0.70178      .   S
    C255   O863      0.69987      .   S
    C257   O863      0.69987      .   S
    C271   O864      0.70015      .   S
    C268   O864      0.70015      .   S
    C271   O865      0.74147      .   S
    C277   O865      0.74147      .   S
    C270   O866      0.70014  1_455   S
    C269   O866      0.70014      .   S
    C270   O867      0.74133      .   S
    C276   O867      0.74133      .   S
    C191   O868      0.73916      .   S
    C187   O868      0.73916      .   S
    C190   O869      0.73915      .   S
    C186   O869      0.73915      .   S
    C206   O870      0.75583      .   S
    C204   O870      0.75583      .   S
    C207   O871      0.75581      .   S
    C205   O871      0.75581      .   S
    C252   O872      0.69379      .   S
    C250   O872      0.69379      .   S
    C253   O873      0.69380      .   S
    C251   O873      0.69380      .   S
    C268   O874      0.73939      .   S
    C274   O874      0.73939      .   S
    C269   O875      0.73971      .   S
    C275   O875      0.73971      .   S
    C74    O876      0.54159      .   S
    C256   O876      0.54159      .   S
    C75    O877      0.54160      .   S
    C257   O877      0.54160      .   S
    C257   O878      0.69405      .   S
    C259   O878      0.69405      .   S
    C256   O879      0.69405      .   S
    C258   O879      0.69405      .   S
    C276   O880      0.60782      .   S
    C420   O880      0.60782      .   S
    C276   O881      0.71930  1_455   S
    C365   O881      0.71930      .   S
    C277   O882      0.60778      .   S
    C421   O882      0.60778      .   S
    C277   O883      0.71920      .   S
    C364   O883      0.71920      .   S
    C185   O884      0.69933      .   S
    C187   O884      0.69933      .   S
    C185   O885      0.69530      .   S
    C183   O885      0.69530      .   S
    C184   O886      0.69933      .   S
    C186   O886      0.69933      .   S
    C184   O887      0.69488      .   S
    C182   O887      0.69488      .   S
    C187   O888      0.69395      .   S
    C189   O888      0.69395      .   S
    C186   O889      0.69394      .   S
    C188   O889      0.69394      .   S
    C250   O890      0.54490      .   S
    C70    O890      0.54490      .   S
    C250   O891      0.67443      .   S
    C360   O891      0.67443      .   S
    C251   O892      0.54472      .   S
    C71    O892      0.54472      .   S
    C251   O893      0.67443      .   S
    C361   O893      0.67443      .   S
    C205   O894      0.63673      .   S
    C401   O894      0.63673      .   S
    C205   O895      0.63660      .   S
    C403   O895      0.63660      .   S
    C204   O896      0.63681      .   S
    C400   O896      0.63681      .   S
    C204   O897      0.63659      .   S
    C402   O897      0.63659      .   S
    C274   O898      0.71552      .   S
    C364   O898      0.71552      .   S
    C274   O899      0.61008      .   S
    C422   O899      0.61008      .   S
    C275   O900      0.71539      .   S
    C365   O900      0.71539      .   S
    C275   O901      0.60992      .   S
    C423   O901      0.60992      .   S
    C401   O902      1.24216      .   S
    C3     O902      1.24216      .   S
    C400   O903      1.24182      .   S
    C2     O903      1.24182      .   S
    C88    O904      0.54307      .   S
    C284   O904      0.54307      .   S
    C89    O905      0.54307      .   S
    C285   O905      0.54307      .   S
    C365   O906      0.70593      .   S
    C283   O906      0.70593      .   S
    C364   O907      0.70593      .   S
    C282   O907      0.70593      .   S
    C259   O908      0.67378      .   S
    C361   O908      0.67378      .   S
    C259   O909      0.54478      .   S
    C77    O909      0.54478      .   S
    C258   O910      0.67378      .   S
    C360   O910      0.67378      .   S
    C258   O911      0.54478      .   S
    C76    O911      0.54478      .   S
    C38    O912      0.54473  1_455   S
    C183   O912      0.54473      .   S
    C39    O913      0.54471      .   S
    C182   O913      0.54471      .   S
    C182   O914      0.70016      .   S
    C180   O914      0.70016      .   S
    C183   O915      0.69972      .   S
    C181   O915      0.69972      .   S
    C41    O916      0.54528      .   S
    C189   O916      0.54528      .   S
    C40    O917      0.54528      .   S
    C188   O917      0.54528      .   S
    C402   O918      1.22749      .   S
    C2     O918      1.22749      .   S
    C403   O919      1.22747      .   S
    C3     O919      1.22747      .   S
    C189   O920      0.70310      .   S
    C179   O920      0.70310      .   S
    C188   O921      0.70311      .   S
    C178   O921      0.70311      .   S
    C361   O922      1.16685      .   S
    C3     O922      1.16685      .   S
    C360   O923      1.16685      .   S
    C2     O923      1.16685      .   S
    C285   O924      0.70065      .   S
    C283   O924      0.70065      .   S
    C285   O925      0.69509      .   S
    C287   O925      0.69509      .   S
    C284   O926      0.70065      .   S
    C282   O926      0.70065      .   S
    C284   O927      0.69509      .   S
    C286   O927      0.69509      .   S
    C282   O928      0.70153      .   S
    C280   O928      0.70153      .   S
    C283   O929      0.70153      .   S
    C281   O929      0.70153      .   S
    C181   O930      0.70373      .   S
    C179   O930      0.70373      .   S
    C181   O931      0.54415      .   S
    C37    O931      0.54415      .   S
    C180   O932      0.70373      .   S
    C178   O932      0.70373      .   S
    C180   O933      0.54357      .   S
    C36    O933      0.54357      .   S
    C179   O934      0.75424      .   S
    C177   O934      0.75424      .   S
    C178   O935      0.75424      .   S
    C176   O935      0.75424      .   S
    C90    O936      0.54450      .   S
    C286   O936      0.54450      .   S
    C91    O937      0.54450      .   S
    C287   O937      0.54450      .   S
    C3     O938      1.25541      .   S
    C393   O938      1.25541      .   S
    C3     O939      1.17639      .   S
    C427   O939      1.17639      .   S
    C2     O940      1.25539      .   S
    C392   O940      1.25539      .   S
    C2     O941      1.17640      .   S
    C426   O941      1.17640      .   S
    C287   O942      0.67452      .   S
    C367   O942      0.67452      .   S
    C286   O943      0.67453      .   S
    C366   O943      0.67453      .   S
    C280   O944      0.54289      .   S
    C86    O944      0.54289      .   S
    C280   O945      0.69334      .   S
    C278   O945      0.69334      .   S
    C281   O946      0.54290      .   S
    C87    O946      0.54290      .   S
    C281   O947      0.69334      .   S
    C279   O947      0.69334      .   S
    C392   O948      0.63511      .   S
    C176   O948      0.63511      .   S
    C393   O949      0.63510      .   S
    C177   O949      0.63510      .   S
    C367   O950      0.67468      .   S
    C279   O950      0.67468      .   S
    C366   O951      0.67467      .   S
    C278   O951      0.67467      .   S
