# CIF file generated by openbabel 2.4.90, see http://openbabel.sf.net
data_I
_chemical_name_common ''
_cell_length_a 17.315
_cell_length_b 19.3
_cell_length_c 22.368
_cell_angle_alpha 90
_cell_angle_beta 90.002
_cell_angle_gamma 94.969
_space_group_name_H-M_alt 'P 1'
_space_group_name_Hall 'P 1'
loop_
    _symmetry_equiv_pos_as_xyz
    x,y,z
loop_
    _atom_site_label
    _atom_site_type_symbol
    _atom_site_fract_x
    _atom_site_fract_y
    _atom_site_fract_z
    _atom_site_occupancy
    Zr0     Zr   0.34496   0.01207   0.44376   1.000
    Zr1     Zr   0.84496   0.01207   0.44376   1.000
    Zr2     Zr   0.15505   0.48790   0.94376   1.000
    Zr3     Zr   0.65505   0.48791   0.94376   1.000
    Zr4     Zr   0.15504   0.98789   0.55623   1.000
    Zr5     Zr   0.65504   0.98789   0.55623   1.000
    Zr6     Zr   0.34495   0.51206   0.05623   1.000
    Zr7     Zr   0.84495   0.51206   0.05623   1.000
    N8      N    0.04548   0.71256   0.32954   1.000
    O9      O    0.08976   0.82792   0.42655   1.000
    O10     O    0.95068   0.63219   0.21459   1.000
    O11     O    0.97305   0.61344   0.20995   1.000
    N12     N    0.95450   0.78738   0.82953   1.000
    O13     O    0.91023   0.67203   0.92654   1.000
    O14     O    0.02694   0.88651   0.70992   1.000
    O15     O    0.04931   0.86776   0.71458   1.000
    N16     N    0.95452   0.28740   0.67044   1.000
    O17     O    0.04932   0.36778   0.78539   1.000
    O18     O    0.91024   0.17204   0.57344   1.000
    O19     O    0.02695   0.38653   0.79003   1.000
    N20     N    0.54550   0.21258   0.17034   1.000
    O21     O    0.45070   0.13221   0.28534   1.000
    O22     O    0.58977   0.32794   0.07339   1.000
    O23     O    0.47307   0.11345   0.28998   1.000
    N24     N    0.45452   0.28740   0.67044   1.000
    O25     O    0.54932   0.36778   0.78538   1.000
    O26     O    0.41024   0.17204   0.57344   1.000
    O27     O    0.52695   0.38653   0.79003   1.000
    N28     N    0.31823   0.22957   0.79326   1.000
    O29     O    0.34464   0.34835   0.91134   1.000
    O30     O    0.26929   0.34752   0.87204   1.000
    O31     O    0.25353   0.12820   0.69104   1.000
    N32     N    0.31822   0.72955   0.70669   1.000
    O33     O    0.26928   0.84750   0.62793   1.000
    O34     O    0.34463   0.84834   0.58863   1.000
    O35     O    0.25352   0.62819   0.80893   1.000
    N36     N    0.04550   0.21258   0.17033   1.000
    O37     O    0.95070   0.13221   0.28533   1.000
    O38     O    0.08977   0.32794   0.07339   1.000
    O39     O    0.97307   0.11345   0.28998   1.000
    N40     N    0.81822   0.72955   0.70669   1.000
    O41     O    0.75352   0.62819   0.80893   1.000
    O42     O    0.76928   0.84750   0.62793   1.000
    O43     O    0.84464   0.84834   0.58863   1.000
    N44     N    0.18179   0.27041   0.29328   1.000
    O45     O    0.15537   0.15163   0.41135   1.000
    O46     O    0.23072   0.15246   0.37205   1.000
    O47     O    0.24649   0.37177   0.19105   1.000
    N48     N    0.45450   0.78738   0.82953   1.000
    O49     O    0.52694   0.88651   0.70992   1.000
    O50     O    0.54931   0.86776   0.71458   1.000
    O51     O    0.41023   0.67203   0.92654   1.000
    N52     N    0.54548   0.71256   0.32954   1.000
    O53     O    0.47305   0.61344   0.20995   1.000
    O54     O    0.58976   0.82792   0.42655   1.000
    O55     O    0.45069   0.63219   0.21459   1.000
    N56     N    0.81823   0.22957   0.79328   1.000
    O57     O    0.75353   0.12820   0.69105   1.000
    O58     O    0.84464   0.34835   0.91134   1.000
    O59     O    0.76929   0.34752   0.87205   1.000
    N60     N    0.18177   0.77039   0.20670   1.000
    O61     O    0.24648   0.87176   0.30894   1.000
    O62     O    0.15536   0.65161   0.08864   1.000
    O63     O    0.23071   0.65244   0.12793   1.000
    N64     N    0.68179   0.27042   0.29328   1.000
    O65     O    0.65537   0.15163   0.41135   1.000
    O66     O    0.74649   0.37178   0.19105   1.000
    O67     O    0.73072   0.15246   0.37205   1.000
    N68     N    0.68178   0.77040   0.20670   1.000
    O69     O    0.65536   0.65162   0.08864   1.000
    O70     O    0.74648   0.87177   0.30892   1.000
    O71     O    0.73071   0.65245   0.12793   1.000
loop_
    _geom_bond_atom_site_label_1
    _geom_bond_atom_site_label_2
    _geom_bond_distance
    _geom_bond_site_symmetry_2
    _ccdc_geom_bond_type
    N8     O9        3.15549      .   S
    Zr4    O9        4.31503      .   S
    N8     O10       3.35713  1_455   S
    Zr7    O10       4.53191      .   S
    N8     O11       3.46015  1_455   S
    Zr7    O11       4.45175      .   S
    N12    O13       3.15552      .   S
    Zr7    O13       4.31516  1_554   S
    N12    O14       3.46054  1_655   S
    Zr4    O14       4.45143      .   S
    N12    O15       3.35716  1_655   S
    Zr4    O15       4.53195      .   S
    N16    O17       3.35722  1_655   S
    Zr2    O17       4.53201      .   S
    N16    O18       3.15544      .   S
    Zr1    O18       4.31495      .   S
    N16    O19       3.46020  1_655   S
    Zr2    O19       4.45190      .   S
    N20    O21       3.35826      .   S
    Zr0    O21       4.53311      .   S
    N20    O22       3.15455      .   S
    Zr3    O22       4.31420  1_556   S
    N20    O23       3.46127      .   S
    Zr0    O23       4.45296      .   S
    N24    O25       3.35708      .   S
    Zr3    O25       4.53220      .   S
    N24    O26       3.15543      .   S
    Zr0    O26       4.31494      .   S
    N24    O27       3.46022      .   S
    Zr3    O27       4.45191      .   S
    N28    O29       3.50116      .   S
    Zr6    O29       4.52596  1_554   S
    N28    O30       3.05600      .   S
    Zr2    O30       3.84142      .   S
    N28    O31       3.15138      .   S
    Zr4    O31       4.30500  1_565   S
    N32    O33       3.05575      .   S
    Zr4    O33       3.84119      .   S
    N32    O34       3.50093      .   S
    Zr0    O34       4.52591  1_545   S
    N32    O35       3.15161      .   S
    Zr2    O35       4.30508      .   S
    N36    O37       3.35814  1_455   S
    Zr1    O37       4.53331      .   S
    N36    O38       3.15450      .   S
    Zr2    O38       4.31415  1_556   S
    N36    O39       3.46131  1_455   S
    Zr1    O39       4.45298      .   S
    N40    O41       3.15160      .   S
    Zr3    O41       4.30506      .   S
    N40    O42       3.05578      .   S
    Zr5    O42       3.84120      .   S
    N40    O43       3.50095      .   S
    Zr1    O43       4.52594  1_545   S
    N44    O45       3.50108      .   S
    Zr4    O45       4.52608  1_565   S
    N44    O46       3.05588      .   S
    Zr0    O46       3.84124      .   S
    N44    O47       3.15147      .   S
    Zr6    O47       4.30493      .   S
    N48    O49       3.46055      .   S
    Zr5    O49       4.45144      .   S
    N48    O50       3.35717      .   S
    Zr5    O50       4.53196      .   S
    N48    O51       3.15553      .   S
    Zr6    O51       4.31517  1_554   S
    N52    O53       3.46017      .   S
    Zr6    O53       4.45183      .   S
    N52    O54       3.15544      .   S
    Zr5    O54       4.31504      .   S
    N52    O55       3.35719      .   S
    Zr6    O55       4.53194      .   S
    N56    O57       3.15150      .   S
    Zr5    O57       4.30511  1_565   S
    N56    O58       3.50104      .   S
    Zr7    O58       4.52586  1_554   S
    N56    O59       3.05591      .   S
    Zr3    O59       3.84137      .   S
    N60    O61       3.15159      .   S
    Zr0    O61       4.30522  1_545   S
    N60    O62       3.50093      .   S
    Zr2    O62       4.52569  1_556   S
    N60    O63       3.05585      .   S
    Zr6    O63       3.84119      .   S
    N64    O65       3.50110      .   S
    Zr5    O65       4.52610  1_565   S
    N64    O66       3.15146      .   S
    Zr7    O66       4.30492      .   S
    N64    O67       3.05588      .   S
    Zr1    O67       3.84128      .   S
    N68    O69       3.50095      .   S
    Zr3    O69       4.52571  1_556   S
    N68    O70       3.15123      .   S
    Zr1    O70       4.30555  1_545   S
    N68    O71       3.05585      .   S
    Zr7    O71       3.84124      .   S
