# CIF file generated by openbabel 2.4.90, see http://openbabel.sf.net
data_I
_chemical_name_common ''
_cell_length_a 18.087
_cell_length_b 18.087
_cell_length_c 17.825
_cell_angle_alpha 90
_cell_angle_beta 89.999
_cell_angle_gamma 119.981
_space_group_name_H-M_alt 'P 1'
_space_group_name_Hall 'P 1'
loop_
    _symmetry_equiv_pos_as_xyz
    x,y,z
loop_
    _atom_site_label
    _atom_site_type_symbol
    _atom_site_fract_x
    _atom_site_fract_y
    _atom_site_fract_z
    _atom_site_occupancy
    H0      H    0.20255   0.21174   0.09203   1.000
    H1      H    0.20257   0.71176   0.09203   1.000
    H2      H    0.70258   0.21175   0.09203   1.000
    H3      H    0.70261   0.71176   0.09201   1.000
    H4      H    0.26070   0.17771   0.03450   1.000
    H5      H    0.26070   0.67771   0.03449   1.000
    H6      H    0.76071   0.17770   0.03449   1.000
    H7      H    0.76071   0.67768   0.03447   1.000
    H8      H    0.50892   0.29712   0.09197   1.000
    H9      H    0.50892   0.79713   0.09197   1.000
    H10     H    0.00000   0.29713   0.09197   1.000
    H11     H    0.00000   0.79714   0.09190   1.000
    H12     H    0.41678   0.23927   0.03435   1.000
    H13     H    0.41678   0.73928   0.03430   1.000
    H14     H    0.91679   0.23927   0.03430   1.000
    H15     H    0.91679   0.73927   0.03436   1.000
    H16     H    0.28817   0.99080   0.09199   1.000
    H17     H    0.28816   0.49081   0.09190   1.000
    H18     H    0.78817   0.99080   0.09190   1.000
    H19     H    0.78817   0.49080   0.09199   1.000
    H20     H    0.32221   0.08297   0.03447   1.000
    H21     H    0.32221   0.58298   0.03440   1.000
    H22     H    0.82222   0.08298   0.03446   1.000
    H23     H    0.82221   0.58298   0.03447   1.000
    H24     H    0.20257   0.21174   0.40795   1.000
    H25     H    0.20257   0.71175   0.40795   1.000
    H26     H    0.70258   0.21174   0.40795   1.000
    H27     H    0.70259   0.71175   0.40796   1.000
    H28     H    0.26070   0.17769   0.46550   1.000
    H29     H    0.26070   0.67769   0.46549   1.000
    H30     H    0.76071   0.17769   0.46500   1.000
    H31     H    0.76070   0.67769   0.46550   1.000
    H32     H    0.50890   0.29711   0.40801   1.000
    H33     H    0.50891   0.79712   0.40801   1.000
    H34     H    0.00000   0.29711   0.40801   1.000
    H35     H    0.00000   0.79713   0.40801   1.000
    H36     H    0.41677   0.23926   0.46563   1.000
    H37     H    0.41677   0.73927   0.46563   1.000
    H38     H    0.91678   0.23926   0.46563   1.000
    H39     H    0.91678   0.73927   0.46563   1.000
    H40     H    0.28816   0.99079   0.40800   1.000
    H41     H    0.28816   0.49081   0.40800   1.000
    H42     H    0.78817   0.99079   0.40800   1.000
    H43     H    0.78817   0.49080   0.40800   1.000
    H44     H    0.32220   0.08297   0.46551   1.000
    H45     H    0.32221   0.58298   0.46552   1.000
    H46     H    0.82221   0.08297   0.46552   1.000
    H47     H    0.82221   0.58297   0.46550   1.000
    H48     H    0.99078   0.28818   0.90798   1.000
    H49     H    0.99079   0.78818   0.90798   1.000
    H50     H    0.49079   0.28818   0.90798   1.000
    H51     H    0.49079   0.78818   0.90798   1.000
    H52     H    0.08295   0.32218   0.96550   1.000
    H53     H    0.08296   0.82219   0.96550   1.000
    H54     H    0.58296   0.32218   0.96550   1.000
    H55     H    0.58296   0.82219   0.96550   1.000
    H56     H    0.21173   0.20258   0.90795   1.000
    H57     H    0.21173   0.70257   0.90794   1.000
    H58     H    0.71174   0.20256   0.90794   1.000
    H59     H    0.71173   0.70254   0.90793   1.000
    H60     H    0.17767   0.26070   0.96550   1.000
    H61     H    0.17769   0.76071   0.96549   1.000
    H62     H    0.67770   0.26070   0.96549   1.000
    H63     H    0.67772   0.76071   0.96547   1.000
    H64     H    0.29713   0.50891   0.90000   1.000
    H65     H    0.29713   0.00000   0.90800   1.000
    H66     H    0.79714   0.50891   0.90800   1.000
    H67     H    0.79714   0.00000   0.90800   1.000
    H68     H    0.23925   0.41678   0.96561   1.000
    H69     H    0.23925   0.91678   0.96562   1.000
    H70     H    0.73926   0.41678   0.96562   1.000
    H71     H    0.73926   0.91679   0.96561   1.000
    H72     H    0.99078   0.28817   0.59190   1.000
    H73     H    0.99079   0.78818   0.59198   1.000
    H74     H    0.49078   0.28818   0.59199   1.000
    H75     H    0.49079   0.78818   0.59198   1.000
    H76     H    0.08295   0.32217   0.53447   1.000
    H77     H    0.08296   0.82219   0.53446   1.000
    H78     H    0.58296   0.32217   0.53447   1.000
    H79     H    0.58296   0.82219   0.53440   1.000
    H80     H    0.21173   0.20256   0.59202   1.000
    H81     H    0.21173   0.70257   0.59202   1.000
    H82     H    0.71174   0.20256   0.59202   1.000
    H83     H    0.71174   0.70256   0.59202   1.000
    C84     C    0.65821   0.69725   0.55828   1.000
    C85     C    0.33069   0.41040   0.60768   1.000
    C86     C    0.33069   0.91041   0.60760   1.000
    C87     C    0.83070   0.41040   0.60768   1.000
    H88     H    0.17770   0.26070   0.53448   1.000
    H89     H    0.17770   0.76071   0.53448   1.000
    H90     H    0.67771   0.26071   0.53448   1.000
    H91     H    0.67771   0.76071   0.53448   1.000
    H92     H    0.29714   0.50891   0.59197   1.000
    H93     H    0.29713   0.00000   0.59197   1.000
    H94     H    0.79714   0.50891   0.59197   1.000
    H95     H    0.79714   0.00000   0.59197   1.000
    H96     H    0.23925   0.41678   0.53435   1.000
    H97     H    0.23926   0.91678   0.53435   1.000
    H98     H    0.73926   0.41678   0.53435   1.000
    H99     H    0.73926   0.91679   0.53435   1.000
    C100    C    0.16931   0.07978   0.10772   1.000
    C101    C    0.16932   0.57979   0.10770   1.000
    C102    C    0.66932   0.07978   0.10771   1.000
    C103    C    0.66932   0.57979   0.10771   1.000
    C104    C    0.19724   0.15821   0.05830   1.000
    C105    C    0.19725   0.65822   0.05829   1.000
    C106    C    0.69726   0.15821   0.05829   1.000
    C107    C    0.69726   0.65822   0.05828   1.000
    C108    C    0.41042   0.33070   0.10769   1.000
    C109    C    0.41042   0.83071   0.10769   1.000
    C110    C    0.91042   0.33070   0.10769   1.000
    C111    C    0.91043   0.83071   0.10769   1.000
    C112    C    0.46081   0.30265   0.05824   1.000
    C113    C    0.46081   0.80266   0.05824   1.000
    C114    C    0.96082   0.30265   0.05824   1.000
    C115    C    0.96082   0.80266   0.05824   1.000
    O116    O    0.09012   0.48793   0.90959   1.000
    O117    O    0.09012   0.98793   0.90959   1.000
    O118    O    0.59013   0.48793   0.90959   1.000
    O119    O    0.59013   0.98793   0.90959   1.000
    O120    O    0.12969   0.41145   0.83754   1.000
    C121    C    0.42012   0.08947   0.10772   1.000
    C122    C    0.42011   0.58948   0.10772   1.000
    C123    C    0.92012   0.08947   0.10772   1.000
    C124    C    0.92012   0.58948   0.10772   1.000
    C125    C    0.34171   0.03900   0.05827   1.000
    C126    C    0.34171   0.53901   0.05827   1.000
    C127    C    0.84172   0.03901   0.05827   1.000
    C128    C    0.84172   0.53901   0.05827   1.000
    C129    C    0.16931   0.07977   0.39227   1.000
    C130    C    0.16931   0.57978   0.39227   1.000
    C131    C    0.66932   0.07977   0.39227   1.000
    C132    C    0.66932   0.57978   0.39227   1.000
    C133    C    0.19725   0.15820   0.44169   1.000
    C134    C    0.19725   0.65821   0.44169   1.000
    C135    C    0.69725   0.15821   0.44169   1.000
    C136    C    0.69725   0.65821   0.44169   1.000
    C137    C    0.41041   0.33069   0.39229   1.000
    C138    C    0.41041   0.83070   0.39229   1.000
    C139    C    0.91042   0.33069   0.39229   1.000
    C140    C    0.91042   0.83070   0.39229   1.000
    C141    C    0.46080   0.30264   0.44174   1.000
    C142    C    0.46081   0.80265   0.44174   1.000
    C143    C    0.96081   0.30264   0.44174   1.000
    C144    C    0.96081   0.80265   0.44174   1.000
    C145    C    0.42011   0.08947   0.39226   1.000
    C146    C    0.42011   0.58948   0.39226   1.000
    C147    C    0.92012   0.08947   0.39226   1.000
    C148    C    0.92012   0.58947   0.39226   1.000
    C149    C    0.34171   0.03900   0.44171   1.000
    C150    C    0.34171   0.53901   0.44170   1.000
    C151    C    0.84171   0.03900   0.44171   1.000
    C152    C    0.84171   0.53901   0.44171   1.000
    C153    C    0.08947   0.42011   0.89225   1.000
    C154    C    0.08947   0.92012   0.89220   1.000
    C155    C    0.58948   0.42012   0.89220   1.000
    C156    C    0.58948   0.92012   0.89220   1.000
    C157    C    0.03900   0.34171   0.94170   1.000
    C158    C    0.03900   0.84171   0.94170   1.000
    C159    C    0.53901   0.34171   0.94170   1.000
    C160    C    0.53901   0.84171   0.94170   1.000
    C161    C    0.07976   0.16931   0.89226   1.000
    C162    C    0.07977   0.66932   0.89226   1.000
    C163    C    0.57977   0.16931   0.89226   1.000
    C164    C    0.57977   0.66932   0.89226   1.000
    C165    C    0.15819   0.19725   0.94169   1.000
    C166    C    0.15820   0.69725   0.94168   1.000
    C167    C    0.65820   0.19725   0.94168   1.000
    C168    C    0.65821   0.69725   0.94160   1.000
    C169    C    0.33069   0.41040   0.89229   1.000
    C170    C    0.33069   0.91041   0.89229   1.000
    C171    C    0.83070   0.41040   0.89229   1.000
    C172    C    0.83070   0.91041   0.89229   1.000
    C173    C    0.30263   0.46080   0.94173   1.000
    C174    C    0.30264   0.96081   0.94174   1.000
    C175    C    0.80264   0.46080   0.94174   1.000
    C176    C    0.80264   0.96081   0.94170   1.000
    C177    C    0.08947   0.42011   0.60771   1.000
    C178    C    0.08947   0.92012   0.60771   1.000
    C179    C    0.58948   0.42011   0.60771   1.000
    C180    C    0.58948   0.92012   0.60771   1.000
    C181    C    0.03900   0.34170   0.55826   1.000
    C182    C    0.03900   0.84171   0.55826   1.000
    C183    C    0.53900   0.34170   0.55826   1.000
    C184    C    0.53901   0.84171   0.55826   1.000
    C185    C    0.07977   0.16931   0.60770   1.000
    C186    C    0.07977   0.66932   0.60770   1.000
    C187    C    0.57978   0.16931   0.60770   1.000
    C188    C    0.57978   0.66932   0.60770   1.000
    C189    C    0.15820   0.19725   0.55828   1.000
    C190    C    0.15820   0.69725   0.55828   1.000
    C191    C    0.65821   0.19725   0.55828   1.000
    C192    C    0.83070   0.91041   0.60760   1.000
    C193    C    0.30264   0.46080   0.55823   1.000
    C194    C    0.30264   0.96081   0.55823   1.000
    C195    C    0.80265   0.46080   0.55823   1.000
    C196    C    0.80265   0.96081   0.55823   1.000
    O197    O    0.10218   0.01199   0.09030   1.000
    O198    O    0.10218   0.51200   0.09036   1.000
    O199    O    0.60219   0.01199   0.09036   1.000
    O200    O    0.60219   0.51200   0.09036   1.000
    O201    O    0.21818   0.08840   0.16240   1.000
    O202    O    0.21818   0.58841   0.16242   1.000
    O203    O    0.71819   0.08840   0.16242   1.000
    O204    O    0.71819   0.58841   0.16242   1.000
    O205    O    0.40992   0.39795   0.09040   1.000
    O206    O    0.40992   0.89796   0.09040   1.000
    O207    O    0.90993   0.39795   0.09040   1.000
    O208    O    0.90993   0.89796   0.09040   1.000
    O209    O    0.37010   0.28181   0.16230   1.000
    O210    O    0.37010   0.78182   0.16237   1.000
    O211    O    0.87011   0.28182   0.16237   1.000
    O212    O    0.87011   0.78182   0.16237   1.000
    O213    O    0.48793   0.09014   0.09038   1.000
    O214    O    0.48793   0.59014   0.09038   1.000
    O215    O    0.98794   0.09014   0.09038   1.000
    O216    O    0.98794   0.59015   0.09038   1.000
    O217    O    0.41146   0.12971   0.16242   1.000
    O218    O    0.41145   0.62972   0.16242   1.000
    O219    O    0.91147   0.12971   0.16242   1.000
    O220    O    0.91146   0.62972   0.16242   1.000
    O221    O    0.10218   0.01198   0.40960   1.000
    O222    O    0.10218   0.51199   0.40960   1.000
    O223    O    0.60219   0.01198   0.40960   1.000
    O224    O    0.60218   0.51199   0.40960   1.000
    O225    O    0.21818   0.08839   0.33756   1.000
    O226    O    0.21818   0.58840   0.33756   1.000
    O227    O    0.71819   0.08839   0.33756   1.000
    O228    O    0.71819   0.58840   0.33756   1.000
    O229    O    0.40992   0.39795   0.40958   1.000
    O230    O    0.40992   0.89796   0.40958   1.000
    O231    O    0.90992   0.39794   0.40958   1.000
    O232    O    0.90992   0.89795   0.40958   1.000
    O233    O    0.37009   0.28181   0.33762   1.000
    O234    O    0.37009   0.78182   0.33762   1.000
    O235    O    0.87010   0.28181   0.33762   1.000
    O236    O    0.87010   0.78182   0.33762   1.000
    O237    O    0.48793   0.09014   0.40960   1.000
    O238    O    0.48793   0.59014   0.40960   1.000
    O239    O    0.98794   0.09013   0.40960   1.000
    O240    O    0.98794   0.59014   0.40960   1.000
    O241    O    0.41146   0.12971   0.33756   1.000
    O242    O    0.41145   0.62972   0.33756   1.000
    O243    O    0.91146   0.12971   0.33756   1.000
    O244    O    0.91146   0.62971   0.33756   1.000
    O245    O    0.12969   0.91145   0.83754   1.000
    O246    O    0.62970   0.41145   0.83754   1.000
    O247    O    0.62970   0.91146   0.83754   1.000
    O248    O    0.01198   0.10216   0.90961   1.000
    O249    O    0.01198   0.60217   0.90961   1.000
    O250    O    0.51199   0.10217   0.90961   1.000
    O251    O    0.51199   0.60217   0.90961   1.000
    O252    O    0.08839   0.21817   0.83755   1.000
    O253    O    0.08839   0.71818   0.83754   1.000
    O254    O    0.58840   0.21817   0.83750   1.000
    O255    O    0.58840   0.71817   0.83754   1.000
    O256    O    0.39795   0.40992   0.90956   1.000
    O257    O    0.39795   0.90993   0.90956   1.000
    O258    O    0.89796   0.40992   0.90956   1.000
    O259    O    0.89796   0.90992   0.90956   1.000
    O260    O    0.28181   0.37010   0.83760   1.000
    O261    O    0.28182   0.87011   0.83760   1.000
    O262    O    0.78182   0.37010   0.83760   1.000
    O263    O    0.78182   0.87011   0.83760   1.000
    O264    O    0.09012   0.48792   0.59038   1.000
    O265    O    0.09012   0.98793   0.59038   1.000
    O266    O    0.59013   0.48792   0.59038   1.000
    O267    O    0.59013   0.98793   0.59038   1.000
    O268    O    0.12969   0.41144   0.66242   1.000
    O269    O    0.12969   0.91145   0.66242   1.000
    O270    O    0.62970   0.41144   0.66242   1.000
    O271    O    0.62970   0.91145   0.66242   1.000
    O272    O    0.01198   0.10217   0.59035   1.000
    O273    O    0.01198   0.60217   0.59035   1.000
    O274    O    0.51199   0.10217   0.59035   1.000
    O275    O    0.51199   0.60218   0.59035   1.000
    O276    O    0.08839   0.21817   0.66242   1.000
    O277    O    0.08839   0.71817   0.66242   1.000
    O278    O    0.58840   0.21817   0.66242   1.000
    O279    O    0.58840   0.71817   0.66242   1.000
    O280    O    0.39795   0.40992   0.59040   1.000
    O281    O    0.39796   0.90993   0.59040   1.000
    O282    O    0.89796   0.40992   0.59040   1.000
    O283    O    0.89796   0.90993   0.59040   1.000
    O284    O    0.28181   0.37010   0.66236   1.000
    O285    O    0.28182   0.87011   0.66236   1.000
    O286    O    0.78182   0.37010   0.66236   1.000
    O287    O    0.78182   0.87011   0.66236   1.000
    O288    O    0.13591   0.13592   0.00000   1.000
    O289    O    0.13590   0.63592   0.99998   1.000
    O290    O    0.63592   0.13592   0.00000   1.000
    O291    O    0.63591   0.63592   0.99998   1.000
    O292    O    0.49999   0.86405   0.00000   1.000
    O293    O    0.36404   0.99997   0.99998   1.000
    O294    O    0.36403   0.49997   0.99996   1.000
    O295    O    0.86405   0.99997   0.99998   1.000
    O296    O    0.86405   0.49998   0.99998   1.000
    O297    O    0.13591   0.13591   0.49998   1.000
    O298    O    0.13591   0.63592   0.49998   1.000
    O299    O    0.63592   0.13591   0.49998   1.000
    O300    O    0.63591   0.63592   0.49998   1.000
    O301    O    0.99998   0.36404   0.49996   1.000
    O302    O    0.99998   0.86405   0.49996   1.000
    O303    O    0.49999   0.36404   0.49996   1.000
    O304    O    0.49999   0.86405   0.49996   1.000
    O305    O    0.36404   0.99997   0.50000   1.000
    O306    O    0.36403   0.49997   0.50000   1.000
    O307    O    0.86404   0.99997   0.50000   1.000
    O308    O    0.86404   0.49997   0.50000   1.000
loop_
    _geom_bond_atom_site_label_1
    _geom_bond_atom_site_label_2
    _geom_bond_distance
    _geom_bond_site_symmetry_2
    _ccdc_geom_bond_type
    O292   C113      1.42350      .   S
    O292   C160      1.42344  1_554   S
    H13    C113      1.10364      .   S
    H14    C114      1.10366      .   S
    H12    C112      1.10330      .   S
    H15    C115      1.10325      .   S
    H21    C126      1.10373      .   S
    H22    C127      1.10329      .   S
    H7     C107      1.10322      .   S
    H20    C125      1.10325      .   S
    H23    C128      1.10326      .   S
    H6     C106      1.10322      .   S
    H5     C105      1.10322      .   S
    H4     C104      1.10326      .   S
    C112   H8        1.10245      .   S
    C112   C108      1.52556      .   S
    C113   H9        1.10245      .   S
    C113   C109      1.52557      .   S
    C115   H11       0.97094  1_655   S
    C115   C111      1.52559      .   S
    C114   H10       0.97181  1_655   S
    C114   C110      1.52556      .   S
    C125   H16       1.10249  1_545   S
    C125   C121      1.52562      .   S
    C125   O293      1.42338  1_544   S
    C126   H17       1.10163      .   S
    C126   C122      1.52561      .   S
    C126   O294      1.42367  1_554   S
    C127   H18       1.10162  1_545   S
    C127   C123      1.52562      .   S
    C127   O295      1.42343  1_544   S
    C128   H19       1.10251      .   S
    C128   C124      1.52562      .   S
    C128   O296      1.42335  1_554   S
    C107   H3        1.10244      .   S
    C107   C103      1.52559      .   S
    C107   O291      1.42369  1_554   S
    C105   H1        1.10249      .   S
    C105   C101      1.52545      .   S
    C105   O289      1.42368  1_554   S
    C106   H2        1.10249      .   S
    C106   C102      1.52555      .   S
    C106   O290      1.42333      .   S
    C104   H0        1.10238      .   S
    C104   C100      1.52559      .   S
    C104   O288      1.42338      .   S
    O197   C100      1.25945      .   S
    O198   C101      1.25911      .   S
    O199   C102      1.25915      .   S
    O200   C103      1.25917      .   S
    O213   C121      1.25919      .   S
    O214   C122      1.25919      .   S
    O215   C123      1.25920      .   S
    O216   C124      1.25918      .   S
    O205   C108      1.25920      .   S
    O206   C109      1.25918      .   S
    O207   C110      1.25920      .   S
    O208   C111      1.25918      .   S
    C108   O209      1.27149      .   S
    C109   O210      1.27244      .   S
    C110   O211      1.27244      .   S
    C111   O212      1.27244      .   S
    C101   O202      1.27246      .   S
    C103   O204      1.27233      .   S
    C102   O203      1.27233      .   S
    C100   O201      1.27192      .   S
    C124   O220      1.27232      .   S
    C123   O219      1.27232      .   S
    C122   O218      1.27232      .   S
    C121   O217      1.27232      .   S
    O243   C147      1.27232      .   S
    O241   C145      1.27231      .   S
    O225   C129      1.27232      .   S
    O226   C130      1.27232      .   S
    O227   C131      1.27233      .   S
    O228   C132      1.27233      .   S
    O242   C146      1.27232      .   S
    O244   C148      1.27232      .   S
    O233   C137      1.27233      .   S
    O234   C138      1.27233      .   S
    O235   C139      1.27232      .   S
    O236   C140      1.27233      .   S
    C145   O237      1.25921      .   S
    C145   C149      1.52561      .   S
    C146   O238      1.25921      .   S
    C146   C150      1.52548      .   S
    C147   O239      1.25921      .   S
    C147   C151      1.52559      .   S
    C148   O240      1.25921      .   S
    C148   C152      1.52561      .   S
    C132   O224      1.25907      .   S
    C132   C136      1.52553      .   S
    C131   O223      1.25906      .   S
    C131   C135      1.52556      .   S
    C129   O221      1.25907      .   S
    C129   C133      1.52556      .   S
    C130   O222      1.25907      .   S
    C130   C134      1.52555      .   S
    C140   O232      1.25919      .   S
    C140   C144      1.52558      .   S
    C139   O231      1.25918      .   S
    C139   C143      1.52556      .   S
    C138   O230      1.25919      .   S
    C138   C142      1.52557      .   S
    C137   O229      1.25919      .   S
    C137   C141      1.52556      .   S
    H24    C133      1.10249      .   S
    H26    C135      1.10248      .   S
    H25    C134      1.10250      .   S
    H27    C136      1.10240      .   S
    H43    C152      1.10241      .   S
    H40    C149      1.10242  1_565   S
    H41    C150      1.10232      .   S
    H42    C151      1.10242  1_565   S
    H35    C144      0.97186  1_455   S
    H34    C143      0.97198  1_455   S
    H33    C142      1.10244      .   S
    H32    C141      1.10244      .   S
    C136   H31       1.10326      .   S
    C136   O300      1.42337      .   S
    C135   H30       1.09989      .   S
    C135   O299      1.42333      .   S
    C134   H29       1.10321      .   S
    C134   O298      1.42333      .   S
    C133   H28       1.10329      .   S
    C133   O297      1.42335      .   S
    C150   H45       1.10336      .   S
    C150   O306      1.42357      .   S
    C152   H47       1.10317      .   S
    C152   O308      1.42340      .   S
    C151   H46       1.10332      .   S
    C151   O307      1.42340  1_545   S
    C149   H44       1.10324      .   S
    C149   O305      1.42339  1_545   S
    C141   H36       1.10328      .   S
    C141   O303      1.42339      .   S
    C142   H37       1.10330      .   S
    C142   O304      1.42337      .   S
    C143   H38       1.10329      .   S
    C143   O301      1.42334      .   S
    C144   H39       1.10331      .   S
    C144   O302      1.42332      .   S
    O301   C181      1.42342  1_655   S
    O302   C182      1.42346  1_655   S
    O303   C183      1.42341      .   S
    O304   C184      1.42344      .   S
    O300   C84       1.42340      .   S
    O297   C189      1.42343      .   S
    O298   C190      1.42344      .   S
    O299   C191      1.42345      .   S
    O306   C193      1.42338      .   S
    O308   C195      1.42342      .   S
    O307   C196      1.42338      .   S
    O305   C194      1.42340      .   S
    H99    C196      1.10326      .   S
    H98    C195      1.10327      .   S
    H97    C194      1.10326      .   S
    H96    C193      1.10328      .   S
    H79    C184      1.10370      .   S
    H77    C182      1.10327      .   S
    H76    C181      1.10321      .   S
    H78    C183      1.10322      .   S
    H91    C84       1.10325      .   S
    H90    C191      1.10323      .   S
    H89    C190      1.10323      .   S
    H88    C189      1.10323      .   S
    C196   H95       0.97198  1_565   S
    C196   C192      1.52477      .   S
    C195   H94       1.10247      .   S
    C195   C87       1.52559      .   S
    C194   H93       0.97199  1_565   S
    C194   C86       1.52477      .   S
    C193   H92       1.10247      .   S
    C193   C85       1.52561      .   S
    C184   H75       1.10245      .   S
    C184   C180      1.52562      .   S
    C183   H74       1.10254      .   S
    C183   C179      1.52565      .   S
    C181   H72       1.10167  1_455   S
    C181   C177      1.52565      .   S
    C182   H73       1.10246  1_455   S
    C182   C178      1.52562      .   S
    C84    H83       1.10245      .   S
    C84    C188      1.52556      .   S
    C191   H82       1.10247      .   S
    C191   C187      1.52554      .   S
    C190   H81       1.10246      .   S
    C190   C186      1.52555      .   S
    C189   H80       1.10246      .   S
    C189   C185      1.52554      .   S
    O275   C188      1.25920      .   S
    O272   C185      1.25920      .   S
    O273   C186      1.25920      .   S
    O274   C187      1.25920      .   S
    O264   C177      1.25920      .   S
    O265   C178      1.25921      .   S
    O266   C179      1.25919      .   S
    O267   C180      1.25920      .   S
    O280   C85       1.25920      .   S
    O283   C192      1.25885      .   S
    O281   C86       1.25885      .   S
    O282   C87       1.25919      .   S
    C86    O285      1.27341      .   S
    C192   O287      1.27341      .   S
    C87    O286      1.27231      .   S
    C85    O284      1.27232      .   S
    C188   O279      1.27232      .   S
    C187   O278      1.27232      .   S
    C186   O277      1.27232      .   S
    C185   O276      1.27232      .   S
    C177   O268      1.27232      .   S
    C178   O269      1.27232      .   S
    C179   O270      1.27232      .   S
    C180   O271      1.27232      .   S
    O254   C163      1.27288      .   S
    O253   C162      1.27232      .   S
    O120   C153      1.27230      .   S
    O245   C154      1.27162      .   S
    O246   C155      1.27162      .   S
    O247   C156      1.27162      .   S
    O255   C164      1.27234      .   S
    O252   C161      1.27220      .   S
    O260   C169      1.27246      .   S
    O261   C170      1.27245      .   S
    O262   C171      1.27245      .   S
    O263   C172      1.27245      .   S
    C156   O119      1.25945      .   S
    C156   C160      1.52614      .   S
    C155   O118      1.25946      .   S
    C155   C159      1.52616      .   S
    C154   O117      1.25945      .   S
    C154   C158      1.52614      .   S
    C153   O116      1.25925      .   S
    C153   C157      1.52563      .   S
    C164   O251      1.25919      .   S
    C164   C168      1.52480      .   S
    C163   O250      1.25920      .   S
    C163   C167      1.52556      .   S
    C162   O249      1.25919      .   S
    C162   C166      1.52556      .   S
    C161   O248      1.25921      .   S
    C161   C165      1.52560      .   S
    C172   O259      1.25915      .   S
    C172   C176      1.52518      .   S
    C169   O256      1.25915      .   S
    C169   C173      1.52549      .   S
    C170   O257      1.25914      .   S
    C170   C174      1.52559      .   S
    C171   O258      1.25915      .   S
    C171   C175      1.52556      .   S
    H64    C173      1.18619      .   S
    H59    C168      1.10173      .   S
    H57    C166      1.10245      .   S
    H58    C167      1.10245      .   S
    H56    C165      1.10247      .   S
    H51    C160      1.10245      .   S
    H48    C157      1.10246  1_655   S
    H49    C158      1.10246  1_655   S
    H50    C159      1.10245      .   S
    H65    C174      0.97197  1_545   S
    H67    C176      0.97147  1_545   S
    H66    C175      1.10250      .   S
    C168   H63       1.10377      .   S
    C168   O291      1.42436      .   S
    C166   H61       1.10329      .   S
    C166   O289      1.42345      .   S
    C167   H62       1.10328      .   S
    C167   O290      1.42363  1_556   S
    C165   H60       1.10324      .   S
    C165   O288      1.42358  1_556   S
    C159   H54       1.10329      .   S
    C158   H53       1.10326      .   S
    C160   H55       1.10329      .   S
    C176   H71       1.10347      .   S
    C176   O295      1.42414      .   S
    C157   H52       1.10327      .   S
    C173   H68       1.10327      .   S
    C173   O294      1.42340      .   S
    C174   H69       1.10327      .   S
    C174   O293      1.42364      .   S
    C175   H70       1.10325      .   S
    C175   O296      1.42368      .   S
