# CIF file generated by openbabel 2.4.90, see http://openbabel.sf.net
data_I
_chemical_name_common ''
_cell_length_a 18.087
_cell_length_b 18.087
_cell_length_c 17.825
_cell_angle_alpha 90
_cell_angle_beta 89.999
_cell_angle_gamma 119.981
_space_group_name_H-M_alt 'P 1'
_space_group_name_Hall 'P 1'
loop_
    _symmetry_equiv_pos_as_xyz
    x,y,z
loop_
    _atom_site_label
    _atom_site_type_symbol
    _atom_site_fract_x
    _atom_site_fract_y
    _atom_site_fract_z
    _atom_site_occupancy
    La0     La   0.33330   0.66673   0.24999   1.000
    La1     La   0.83331   0.16672   0.24999   1.000
    La2     La   0.83331   0.66673   0.24999   1.000
    La3     La   0.16671   0.33329   0.74998   1.000
    La4     La   0.16672   0.83330   0.74998   1.000
    La5     La   0.66672   0.33330   0.74998   1.000
    La6     La   0.66672   0.83330   0.74998   1.000
    Y7      Y    0.00003   0.00002   0.99999   1.000
    Y8      Y    0.00002   0.50002   0.99998   1.000
    Y9      Y    0.50003   0.00002   0.99999   1.000
    Y10     Y    0.50002   0.50002   0.99998   1.000
    Y11     Y    0.00002   0.00002   0.49999   1.000
    Y12     Y    0.00002   0.50003   0.49999   1.000
    Y13     Y    0.50003   0.00002   0.49999   1.000
    Y14     Y    0.50003   0.50003   0.49999   1.000
    La15    La   0.33330   0.16672   0.24999   1.000
