# CIF file generated by openbabel 2.4.90, see http://openbabel.sf.net
data_I
_chemical_name_common ''
_cell_length_a 18.087
_cell_length_b 18.087
_cell_length_c 17.825
_cell_angle_alpha 90
_cell_angle_beta 89.999
_cell_angle_gamma 119.981
_space_group_name_H-M_alt 'P 1'
_space_group_name_Hall 'P 1'
loop_
    _symmetry_equiv_pos_as_xyz
    x,y,z
loop_
    _atom_site_label
    _atom_site_type_symbol
    _atom_site_fract_x
    _atom_site_fract_y
    _atom_site_fract_z
    _atom_site_occupancy
    Zr0     Zr   0.33330   0.16672   0.24999   1.000
    Zr1     Zr   0.33330   0.66673   0.24999   1.000
    Zr2     Zr   0.83331   0.16672   0.24999   1.000
    Zr3     Zr   0.83331   0.66673   0.24999   1.000
    Zr4     Zr   0.16671   0.33329   0.74998   1.000
    Zr5     Zr   0.16672   0.83330   0.74998   1.000
    Zr6     Zr   0.66672   0.33330   0.74998   1.000
    Zr7     Zr   0.66672   0.83330   0.74998   1.000
    Zr8     Zr   0.00003   0.00002   0.99999   1.000
    Zr9     Zr   0.00002   0.50002   0.99998   1.000
    Zr10    Zr   0.50003   0.00002   0.99999   1.000
    Zr11    Zr   0.50002   0.50002   0.99998   1.000
    Zr12    Zr   0.00002   0.00002   0.49999   1.000
    Zr13    Zr   0.00002   0.50003   0.49999   1.000
    Zr14    Zr   0.50003   0.00002   0.49999   1.000
    Zr15    Zr   0.50003   0.50003   0.49999   1.000
    N16     N    0.15491   0.65492   0.99998   1.000
    O17     O    0.14123   0.71533   0.89687   1.000
    O18     O    0.21533   0.64125   0.10309   1.000
    N19     N    0.65492   0.65492   0.99997   1.000
    O20     O    0.64124   0.71533   0.89687   1.000
    O21     O    0.71534   0.64124   0.10309   1.000
    N22     N    0.15491   0.15491   0.49998   1.000
    O23     O    0.14123   0.21532   0.60309   1.000
    O24     O    0.21533   0.14123   0.39688   1.000
    N25     N    0.65492   0.15492   0.99998   1.000
    O26     O    0.71533   0.14124   0.10309   1.000
    O27     O    0.64124   0.21533   0.89686   1.000
    N28     N    0.15491   0.65492   0.49998   1.000
    O29     O    0.14123   0.71533   0.60309   1.000
    O30     O    0.21533   0.64124   0.39688   1.000
    N31     N    0.84501   0.49992   0.00000   1.000
    O32     O    0.78464   0.42581   0.89690   1.000
    O33     O    0.85870   0.57407   0.10310   1.000
    N34     N    0.34501   0.49993   0.99937   1.000
    O35     O    0.28463   0.42581   0.89658   1.000
    O36     O    0.35869   0.57407   0.10279   1.000
    N37     N    0.99923   0.34500   0.50000   1.000
    O38     O    0.07372   0.35868   0.60310   1.000
    O39     O    0.92547   0.28463   0.39690   1.000
    N40     N    0.07034   0.37859   0.90909   1.000
    O41     O    0.05770   0.43628   0.93194   1.000
    O42     O    0.10927   0.37548   0.85143   1.000
    N43     N    0.65492   0.15491   0.49995   1.000
    O44     O    0.64124   0.21532   0.60307   1.000
    O45     O    0.71534   0.14123   0.39686   1.000
    N46     N    0.92801   0.80826   0.09083   1.000
    O47     O    0.94149   0.87862   0.06801   1.000
    O48     O    0.88986   0.76627   0.14850   1.000
    N49     N    0.49992   0.84502   0.99996   1.000
    O50     O    0.42581   0.78465   0.10307   1.000
    O51     O    0.57407   0.85870   0.89686   1.000
    N52     N    0.42949   0.30825   0.09083   1.000
    O53     O    0.44223   0.37862   0.06801   1.000
    O54     O    0.39059   0.26626   0.14849   1.000
    N55     N    0.34501   0.99924   0.49997   1.000
    O56     O    0.28464   0.92547   0.60307   1.000
    O57     O    0.35869   0.07373   0.39687   1.000
    N58     N    0.65492   0.65492   0.49999   1.000
    O59     O    0.64124   0.71533   0.60309   1.000
    O60     O    0.71533   0.64124   0.39688   1.000
    N61     N    0.34501   0.49993   0.49997   1.000
    O62     O    0.28464   0.42581   0.60307   1.000
    O63     O    0.35869   0.57407   0.39687   1.000
    N64     N    0.57034   0.37859   0.90908   1.000
    O65     O    0.55771   0.43629   0.93193   1.000
    O66     O    0.60928   0.37548   0.85142   1.000
    N67     N    0.84502   0.99924   0.99999   1.000
    O68     O    0.85870   0.07373   0.10310   1.000
    O69     O    0.78464   0.92547   0.89689   1.000
    N70     N    0.99924   0.84501   0.50000   1.000
    O71     O    0.07372   0.85869   0.60310   1.000
    O72     O    0.92547   0.78464   0.39690   1.000
    N73     N    0.34501   0.99924   0.00000   1.000
    O74     O    0.35869   0.07373   0.10310   1.000
    O75     O    0.28464   0.92547   0.89690   1.000
    N76     N    0.84501   0.99924   0.49997   1.000
    O77     O    0.85870   0.07372   0.39687   1.000
    O78     O    0.78464   0.92547   0.60307   1.000
    N79     N    0.84501   0.49992   0.49997   1.000
    O80     O    0.78464   0.42581   0.60307   1.000
    O81     O    0.85870   0.57407   0.39687   1.000
    N82     N    0.49992   0.34500   0.50000   1.000
    O83     O    0.57406   0.35869   0.60310   1.000
    O84     O    0.42581   0.28463   0.39690   1.000
    N85     N    0.49992   0.84501   0.50000   1.000
    O86     O    0.57407   0.85869   0.60310   1.000
    O87     O    0.42581   0.78464   0.39690   1.000
    N88     N    0.15491   0.15492   0.99999   1.000
    O89     O    0.21532   0.14124   0.10309   1.000
    O90     O    0.14123   0.21532   0.89688   1.000
    N91     N    0.92801   0.30825   0.09083   1.000
    O92     O    0.94149   0.37862   0.06801   1.000
    O93     O    0.88986   0.26626   0.14850   1.000
    N94     N    0.07034   0.87860   0.90909   1.000
    O95     O    0.10927   0.87549   0.85142   1.000
    O96     O    0.05771   0.93629   0.93194   1.000
    O97     O    0.89839   0.49997   0.49998   1.000
    O98     O    0.89839   0.99962   0.49998   1.000
    O99     O    0.39838   0.49997   0.99967   1.000
    O100    O    0.90050   0.49434   0.99434   1.000
    O101    O    0.09948   0.59384   0.49434   1.000
    O102    O    0.09948   0.09384   0.00563   1.000
    O103    O    0.59949   0.09384   0.00563   1.000
    O104    O    0.49434   0.90050   0.49434   1.000
    O105    O    0.09948   0.09384   0.49434   1.000
    O106    O    0.49434   0.40050   0.49434   1.000
    O107    O    0.60159   0.60159   0.99998   1.000
    O108    O    0.09384   0.59948   0.99433   1.000
    O109    O    0.59385   0.59948   0.50563   1.000
    O110    O    0.39838   0.49997   0.49998   1.000
    O111    O    0.90051   0.99400   0.99434   1.000
    O112    O    0.00526   0.90613   0.50564   1.000
    O113    O    0.40050   0.99400   0.99434   1.000
    O114    O    0.59385   0.09948   0.50561   1.000
    O115    O    0.40050   0.99400   0.50563   1.000
    O116    O    0.99399   0.40050   0.49434   1.000
    O117    O    0.50561   0.90613   0.99433   1.000
loop_
    _geom_bond_atom_site_label_1
    _geom_bond_atom_site_label_2
    _geom_bond_distance
    _geom_bond_site_symmetry_2
    _ccdc_geom_bond_type
    N16    O17       2.21434      .   S
    Zr5    O17       3.26161      .   S
    N16    O18       2.21438  1_556   S
    Zr1    O18       3.26174      .   S
    N19    O20       2.21429      .   S
    Zr7    O20       3.26157      .   S
    N19    O21       2.21444  1_556   S
    Zr3    O21       3.26179      .   S
    N22    O23       2.21429      .   S
    Zr4    O23       3.26160      .   S
    N22    O24       2.21426      .   S
    Zr0    O24       3.26158      .   S
    N25    O26       2.21440  1_556   S
    Zr2    O26       3.26175      .   S
    N25    O27       2.21449      .   S
    Zr6    O27       3.26147      .   S
    N28    O29       2.21429      .   S
    Zr5    O29       3.26160      .   S
    N28    O30       2.21426      .   S
    Zr1    O30       3.26158      .   S
    N31    O32       2.21454  1_554   S
    Zr6    O32       3.26196      .   S
    N31    O33       2.21484      .   S
    Zr3    O33       3.26246      .   S
    N34    O35       2.20988      .   S
    Zr4    O35       3.25745      .   S
    N34    O36       2.21951  1_556   S
    Zr1    O36       3.26698      .   S
    N37    O38       2.21822  1_655   S
    Zr4    O38       3.26605      .   S
    N37    O39       2.21212      .   S
    Zr2    O39       3.26063      .   S
    N40    O41       1.24306      .   S
    Zr9    O41       2.25630      .   S
    N40    O42       1.26301      .   S
    Zr4    O42       2.39247      .   S
    N43    O44       2.21458      .   S
    Zr6    O44       3.26188      .   S
    N43    O45       2.21398      .   S
    Zr2    O45       3.26131      .   S
    N46    O47       1.23874      .   S
    Zr8    O47       2.25586  1_446   S
    N46    O48       1.25943      .   S
    Zr3    O48       2.39156      .   S
    N49    O50       2.21454  1_556   S
    Zr1    O50       3.26191      .   S
    N49    O51       2.21478      .   S
    Zr7    O51       3.26239      .   S
    N52    O53       1.24310      .   S
    Zr11   O53       2.25626  1_556   S
    N52    O54       1.26257      .   S
    Zr0    O54       2.39253      .   S
    N55    O56       2.21220      .   S
    Zr5    O56       3.26067      .   S
    N55    O57       2.21814  1_565   S
    Zr0    O57       3.26600      .   S
    N58    O59       2.21430      .   S
    Zr7    O59       3.26161      .   S
    N58    O60       2.21426      .   S
    Zr3    O60       3.26158      .   S
    N61    O62       2.21441      .   S
    Zr4    O62       3.26180      .   S
    N61    O63       2.21480      .   S
    Zr1    O63       3.26245      .   S
    N64    O65       1.24308      .   S
    Zr11   O65       2.25633      .   S
    N64    O66       1.26295      .   S
    Zr6    O66       2.39241      .   S
    N67    O68       2.21831  1_566   S
    Zr2    O68       3.26613      .   S
    N67    O69       2.21222      .   S
    Zr7    O69       3.26072      .   S
    N70    O71       2.21818  1_655   S
    Zr5    O71       3.26601      .   S
    N70    O72       2.21218      .   S
    Zr3    O72       3.26069      .   S
    N73    O74       2.21823  1_565   S
    Zr0    O74       3.26605      .   S
    N73    O75       2.21230  1_554   S
    Zr5    O75       3.26079      .   S
    N76    O77       2.21814  1_565   S
    Zr2    O77       3.26600      .   S
    N76    O78       2.21219      .   S
    Zr7    O78       3.26066      .   S
    N79    O80       2.21440      .   S
    Zr6    O80       3.26179      .   S
    N79    O81       2.21479      .   S
    Zr3    O81       3.26244      .   S
    N82    O83       2.21479      .   S
    Zr6    O83       3.26241      .   S
    N82    O84       2.21442      .   S
    Zr0    O84       3.26184      .   S
    N85    O86       2.21483      .   S
    Zr7    O86       3.26245      .   S
    N85    O87       2.21438      .   S
    Zr1    O87       3.26181      .   S
    N88    O89       2.21432  1_556   S
    Zr0    O89       3.26182      .   S
    N88    O90       2.21430      .   S
    Zr4    O90       3.26164      .   S
    N91    O92       1.23880      .   S
    Zr9    O92       2.25600  1_456   S
    N91    O93       1.25942      .   S
    Zr2    O93       2.39155      .   S
    N94    O95       1.26294      .   S
    Zr5    O95       2.39240      .   S
    N94    O96       1.24306      .   S
    Zr8    O96       2.25627  1_545   S
    N79    O97       0.96492      .   S
    Zr13   O97       1.83774  1_455   S
    N76    O98       0.96186      .   S
    Zr12   O98       1.83468  1_445   S
    N34    O99       0.96499      .   S
    Zr11   O99       1.83792      .   S
    N31    O100      1.06255  1_554   S
    Zr9    O100      1.75363  1_455   S
    N28    O101      1.06242      .   S
    Zr13   O101      1.75350      .   S
    N88    O102      1.06240  1_556   S
    Zr8    O102      1.75346  1_556   S
    N25    O103      1.06241  1_556   S
    Zr10   O103      1.75348  1_556   S
    N85    O104      1.06256      .   S
    Zr14   O104      1.75370  1_545   S
    N22    O105      1.06243      .   S
    Zr12   O105      1.75351      .   S
    N82    O106      1.06263      .   S
    Zr15   O106      1.75391      .   S
    N19    O107      0.96485      .   S
    Zr11   O107      1.83759      .   S
    N16    O108      1.06247      .   S
    Zr9    O108      1.75357      .   S
    N58    O109      1.06243      .   S
    Zr15   O109      1.75349      .   S
    N61    O110      0.96499      .   S
    Zr15   O110      1.83793      .   S
    N67    O111      1.05907      .   S
    Zr8    O111      1.75096  1_445   S
    N70    O112      1.05998  1_655   S
    Zr12   O112      1.75040  1_545   S
    N73    O113      1.05915  1_554   S
    Zr10   O113      1.75116  1_545   S
    N43    O114      1.06246      .   S
    Zr14   O114      1.75348      .   S
    N55    O115      1.05914      .   S
    Zr14   O115      1.75110  1_545   S
    N37    O116      1.05913      .   S
    Zr13   O116      1.75114  1_455   S
    N49    O117      1.06256      .   S
    Zr10   O117      1.75371  1_545   S
