# CIF file generated by openbabel 2.4.90, see http://openbabel.sf.net
data_I
_chemical_name_common ''
_cell_length_a 18.087
_cell_length_b 18.087
_cell_length_c 17.825
_cell_angle_alpha 90
_cell_angle_beta 89.999
_cell_angle_gamma 119.981
_space_group_name_H-M_alt 'P 1'
_space_group_name_Hall 'P 1'
loop_
    _symmetry_equiv_pos_as_xyz
    x,y,z
loop_
    _atom_site_label
    _atom_site_type_symbol
    _atom_site_fract_x
    _atom_site_fract_y
    _atom_site_fract_z
    _atom_site_occupancy
    Zr0     Zr   0.33330   0.16672   0.24999   1.000
    Zr1     Zr   0.33330   0.66673   0.24999   1.000
    Zr2     Zr   0.83331   0.16672   0.24999   1.000
    Zr3     Zr   0.83331   0.66673   0.24999   1.000
    Zr4     Zr   0.16671   0.33329   0.74998   1.000
    Zr5     Zr   0.16672   0.83330   0.74998   1.000
    Zr6     Zr   0.66672   0.33330   0.74998   1.000
    Zr7     Zr   0.66672   0.83330   0.74998   1.000
    Zr8     Zr   0.00003   0.00002   0.99999   1.000
    Zr9     Zr   0.00002   0.50002   0.99998   1.000
    Zr10    Zr   0.50003   0.00002   0.99999   1.000
    Zr11    Zr   0.50002   0.50002   0.99998   1.000
    Zr12    Zr   0.00002   0.00002   0.49999   1.000
    Zr13    Zr   0.00002   0.50003   0.49999   1.000
    Zr14    Zr   0.50003   0.00002   0.49999   1.000
    Zr15    Zr   0.50003   0.50003   0.49999   1.000
    N16     N    0.15491   0.65492   0.99998   1.000
    O17     O    0.14123   0.71533   0.89687   1.000
    O18     O    0.21533   0.64125   0.10309   1.000
    O19     O    0.11144   0.61145   0.99998   1.000
    O20     O    0.10301   0.58047   0.02258   1.000
    O21     O    0.08046   0.60301   0.97739   1.000
    N22     N    0.65492   0.65492   0.99997   1.000
    O23     O    0.64124   0.71533   0.89687   1.000
    O24     O    0.61144   0.61144   0.99998   1.000
    O25     O    0.60301   0.58046   0.02257   1.000
    O26     O    0.71534   0.64124   0.10309   1.000
    O27     O    0.58046   0.60301   0.97738   1.000
    N28     N    0.15491   0.15491   0.49998   1.000
    O29     O    0.10301   0.08045   0.47739   1.000
    O30     O    0.11144   0.11144   0.49998   1.000
    O31     O    0.14123   0.21532   0.60309   1.000
    O32     O    0.21533   0.14123   0.39688   1.000
    O33     O    0.08046   0.10300   0.52258   1.000
    N34     N    0.65492   0.15492   0.99998   1.000
    O35     O    0.60302   0.08046   0.02258   1.000
    O36     O    0.58047   0.10301   0.97739   1.000
    O37     O    0.71533   0.14124   0.10309   1.000
    O38     O    0.61145   0.11144   0.99999   1.000
    O39     O    0.64124   0.21533   0.89686   1.000
    N40     N    0.15491   0.65492   0.49998   1.000
    O41     O    0.10300   0.58046   0.47739   1.000
    O42     O    0.14123   0.71533   0.60309   1.000
    O43     O    0.11144   0.61144   0.49998   1.000
    O44     O    0.21533   0.64124   0.39688   1.000
    O45     O    0.08046   0.60301   0.52258   1.000
    N46     N    0.84501   0.49992   0.00000   1.000
    O47     O    0.78464   0.42581   0.89690   1.000
    O48     O    0.89700   0.47745   0.97739   1.000
    O49     O    0.91950   0.52250   0.02259   1.000
    O50     O    0.85870   0.57407   0.10310   1.000
    O51     O    0.88852   0.49996   0.99999   1.000
    N52     N    0.34501   0.49993   0.99937   1.000
    O53     O    0.41949   0.52250   0.02228   1.000
    O54     O    0.39699   0.47745   0.97707   1.000
    O55     O    0.28463   0.42581   0.89658   1.000
    O56     O    0.38851   0.49996   0.99967   1.000
    O57     O    0.35869   0.57407   0.10279   1.000
    N58     N    0.99923   0.34500   0.50000   1.000
    O59     O    0.97710   0.39699   0.47739   1.000
    O60     O    0.02215   0.41949   0.52259   1.000
    O61     O    0.07372   0.35868   0.60310   1.000
    O62     O    0.99962   0.38852   0.49999   1.000
    O63     O    0.92547   0.28463   0.39690   1.000
    N64     N    0.07034   0.37859   0.90909   1.000
    O65     O    0.05770   0.43628   0.93194   1.000
    O66     O    0.10927   0.37548   0.85143   1.000
    N67     N    0.65492   0.15491   0.49995   1.000
    O68     O    0.64124   0.21532   0.60307   1.000
    O69     O    0.60301   0.08046   0.47737   1.000
    O70     O    0.58047   0.10300   0.52256   1.000
    O71     O    0.71534   0.14123   0.39686   1.000
    O72     O    0.61145   0.11144   0.49997   1.000
    N73     N    0.92801   0.80826   0.09083   1.000
    O74     O    0.94149   0.87862   0.06801   1.000
    O75     O    0.88986   0.76627   0.14850   1.000
    N76     N    0.49992   0.84502   0.99996   1.000
    O77     O    0.47745   0.89700   0.02258   1.000
    O78     O    0.42581   0.78465   0.10307   1.000
    O79     O    0.49997   0.88853   0.99998   1.000
    O80     O    0.52250   0.91950   0.97737   1.000
    O81     O    0.57407   0.85870   0.89686   1.000
    N82     N    0.42949   0.30825   0.09083   1.000
    O83     O    0.44223   0.37862   0.06801   1.000
    O84     O    0.39059   0.26626   0.14849   1.000
    N85     N    0.34501   0.99924   0.49997   1.000
    O86     O    0.39700   0.97711   0.52258   1.000
    O87     O    0.28464   0.92547   0.60307   1.000
    O88     O    0.38852   0.99962   0.49998   1.000
    O89     O    0.41949   0.02216   0.47738   1.000
    O90     O    0.35869   0.07373   0.39687   1.000
    N91     N    0.65492   0.65492   0.49999   1.000
    O92     O    0.61145   0.61144   0.49999   1.000
    O93     O    0.64124   0.71533   0.60309   1.000
    O94     O    0.71533   0.64124   0.39688   1.000
    O95     O    0.60301   0.58046   0.47739   1.000
    O96     O    0.58046   0.60301   0.52258   1.000
    N97     N    0.34501   0.49993   0.49997   1.000
    O98     O    0.39700   0.47745   0.52258   1.000
    O99     O    0.41949   0.52250   0.47738   1.000
    O100    O    0.28464   0.42581   0.60307   1.000
    O101    O    0.38852   0.49996   0.49998   1.000
    O102    O    0.35869   0.57407   0.39687   1.000
    N103    N    0.57034   0.37859   0.90908   1.000
    O104    O    0.55771   0.43629   0.93193   1.000
    O105    O    0.60928   0.37548   0.85142   1.000
    N106    N    0.84502   0.99924   0.99999   1.000
    O107    O    0.85870   0.07373   0.10310   1.000
    O108    O    0.88853   0.99962   0.99999   1.000
    O109    O    0.78464   0.92547   0.89689   1.000
    O110    O    0.89700   0.97711   0.97738   1.000
    O111    O    0.91950   0.02216   0.02259   1.000
    N112    N    0.99924   0.84501   0.50000   1.000
    O113    O    0.99962   0.88852   0.49999   1.000
    O114    O    0.07372   0.85869   0.60310   1.000
    O115    O    0.02215   0.91949   0.52259   1.000
    O116    O    0.92547   0.78464   0.39690   1.000
    O117    O    0.97710   0.89700   0.47739   1.000
    N118    N    0.34501   0.99924   0.00000   1.000
    O119    O    0.39700   0.97711   0.97739   1.000
    O120    O    0.35869   0.07373   0.10310   1.000
    O121    O    0.28464   0.92547   0.89690   1.000
    O122    O    0.41950   0.02216   0.02259   1.000
    O123    O    0.38852   0.99962   0.99999   1.000
    N124    N    0.84501   0.99924   0.49997   1.000
    O125    O    0.89700   0.97711   0.52258   1.000
    O126    O    0.88852   0.99961   0.49998   1.000
    O127    O    0.91950   0.02216   0.47738   1.000
    O128    O    0.85870   0.07372   0.39687   1.000
    O129    O    0.78464   0.92547   0.60307   1.000
    N130    N    0.84501   0.49992   0.49997   1.000
    O131    O    0.88852   0.49996   0.49998   1.000
    O132    O    0.78464   0.42581   0.60307   1.000
    O133    O    0.89700   0.47745   0.52258   1.000
    O134    O    0.91950   0.52250   0.47738   1.000
    O135    O    0.85870   0.57407   0.39687   1.000
    N136    N    0.49992   0.34500   0.50000   1.000
    O137    O    0.47744   0.39699   0.47739   1.000
    O138    O    0.57406   0.35869   0.60310   1.000
    O139    O    0.49996   0.38852   0.49999   1.000
    O140    O    0.42581   0.28463   0.39690   1.000
    O141    O    0.52250   0.41949   0.52259   1.000
    N142    N    0.49992   0.84501   0.50000   1.000
    O143    O    0.57407   0.85869   0.60310   1.000
    O144    O    0.42581   0.78464   0.39690   1.000
    O145    O    0.47745   0.89700   0.47739   1.000
    O146    O    0.49997   0.88852   0.49999   1.000
    O147    O    0.52250   0.91949   0.52259   1.000
    N148    N    0.15491   0.15492   0.99999   1.000
    O149    O    0.10301   0.08046   0.02257   1.000
    O150    O    0.11144   0.11144   0.99999   1.000
    O151    O    0.08046   0.10301   0.97739   1.000
    O152    O    0.21532   0.14124   0.10309   1.000
    O153    O    0.14123   0.21532   0.89688   1.000
    N154    N    0.92801   0.30825   0.09083   1.000
    O155    O    0.94149   0.37862   0.06801   1.000
    O156    O    0.88986   0.26626   0.14850   1.000
    N157    N    0.07034   0.87860   0.90909   1.000
    O158    O    0.10927   0.87549   0.85142   1.000
    O159    O    0.05771   0.93629   0.93194   1.000
    N160    N    0.50000   0.36405   0.30000   1.000
    N161    N    0.99999   0.36405   0.20000   1.000
    N162    N    0.99999   0.86405   0.20000   1.000
loop_
    _geom_bond_atom_site_label_1
    _geom_bond_atom_site_label_2
    _geom_bond_distance
    _geom_bond_site_symmetry_2
    _ccdc_geom_bond_type
    N16    O17       2.21434      .   S
    Zr5    O17       3.26161      .   S
    N16    O18       2.21438  1_556   S
    Zr1    O18       3.26174      .   S
    N16    O19       0.78659      .   S
    Zr9    O19       2.01586      .   S
    N16    O20       1.26236  1_556   S
    Zr9    O20       1.74369  1_556   S
    N16    O21       1.26241      .   S
    Zr9    O21       1.74359      .   S
    N22    O23       2.21429      .   S
    Zr7    O23       3.26157      .   S
    N22    O24       0.78658      .   S
    Zr11   O24       2.01586      .   S
    N22    O25       1.26237  1_556   S
    Zr11   O25       1.74368  1_556   S
    N22    O26       2.21444  1_556   S
    Zr3    O26       3.26179      .   S
    N22    O27       1.26241      .   S
    Zr11   O27       1.74360      .   S
    N28    O29       1.26237      .   S
    Zr12   O29       1.74359      .   S
    N28    O30       0.78653      .   S
    Zr12   O30       2.01580      .   S
    N28    O31       2.21429      .   S
    Zr4    O31       3.26160      .   S
    N28    O32       2.21426      .   S
    Zr0    O32       3.26158      .   S
    N28    O33       1.26236      .   S
    Zr12   O33       1.74352      .   S
    N34    O35       1.26235  1_556   S
    Zr10   O35       1.74353  1_556   S
    N34    O36       1.26237      .   S
    Zr10   O36       1.74351      .   S
    N34    O37       2.21440  1_556   S
    Zr2    O37       3.26175      .   S
    N34    O38       0.78651      .   S
    Zr10   O38       2.01578      .   S
    N34    O39       2.21449      .   S
    Zr6    O39       3.26147      .   S
    N40    O41       1.26237      .   S
    Zr13   O41       1.74358      .   S
    N40    O42       2.21429      .   S
    Zr5    O42       3.26160      .   S
    N40    O43       0.78653      .   S
    Zr13   O43       2.01579      .   S
    N40    O44       2.21426      .   S
    Zr1    O44       3.26158      .   S
    N40    O45       1.26236      .   S
    Zr13   O45       1.74351      .   S
    N46    O47       2.21454  1_554   S
    Zr6    O47       3.26196      .   S
    N46    O48       1.26249  1_554   S
    Zr9    O48       1.74362  1_455   S
    N46    O49       1.26249      .   S
    Zr9    O49       1.74370  1_456   S
    N46    O50       2.21484      .   S
    Zr3    O50       3.26246      .   S
    N46    O51       0.78658  1_554   S
    Zr9    O51       2.01601  1_455   S
    N52    O53       1.26436  1_556   S
    Zr11   O53       1.74262  1_556   S
    N52    O54       1.26078      .   S
    Zr11   O54       1.74512      .   S
    N52    O55       2.20988      .   S
    Zr4    O55       3.25745      .   S
    N52    O56       0.78665      .   S
    Zr11   O56       2.01626      .   S
    N52    O57       2.21951  1_556   S
    Zr1    O57       3.26698      .   S
    N58    O59       1.25821      .   S
    Zr13   O59       1.74209  1_455   S
    N58    O60       1.26132  1_655   S
    Zr13   O60       1.73990      .   S
    N58    O61       2.21822  1_655   S
    Zr4    O61       3.26605      .   S
    N58    O62       0.78362      .   S
    Zr13   O62       2.01322  1_455   S
    N58    O63       2.21212      .   S
    Zr2    O63       3.26063      .   S
    N64    O65       1.24306      .   S
    Zr9    O65       2.25630      .   S
    N64    O66       1.26301      .   S
    Zr4    O66       2.39247      .   S
    N67    O68       2.21458      .   S
    Zr6    O68       3.26188      .   S
    N67    O69       1.26226      .   S
    Zr14   O69       1.74367      .   S
    N67    O70       1.26247      .   S
    Zr14   O70       1.74344      .   S
    N67    O71       2.21398      .   S
    Zr2    O71       3.26131      .   S
    N67    O72       0.78654      .   S
    Zr14   O72       2.01580      .   S
    N73    O74       1.23874      .   S
    Zr8    O74       2.25586  1_446   S
    N73    O75       1.25943      .   S
    Zr3    O75       2.39156      .   S
    N76    O77       1.26252  1_556   S
    Zr10   O77       1.74366  1_546   S
    N76    O78       2.21454  1_556   S
    Zr1    O78       3.26191      .   S
    N76    O79       0.78658      .   S
    Zr10   O79       2.01609  1_545   S
    N76    O80       1.26247      .   S
    Zr10   O80       1.74375  1_545   S
    N76    O81       2.21478      .   S
    Zr7    O81       3.26239      .   S
    N82    O83       1.24310      .   S
    Zr11   O83       2.25626  1_556   S
    N82    O84       1.26257      .   S
    Zr0    O84       2.39253      .   S
    N85    O86       1.25827      .   S
    Zr14   O86       1.74200  1_545   S
    N85    O87       2.21220      .   S
    Zr5    O87       3.26067      .   S
    N85    O88       0.78360      .   S
    Zr14   O88       2.01320  1_545   S
    N85    O89       1.26126  1_565   S
    Zr14   O89       1.73994      .   S
    N85    O90       2.21814  1_565   S
    Zr0    O90       3.26600      .   S
    N91    O92       0.78653      .   S
    Zr15   O92       2.01580      .   S
    N91    O93       2.21430      .   S
    Zr7    O93       3.26161      .   S
    N91    O94       2.21426      .   S
    Zr3    O94       3.26158      .   S
    N91    O95       1.26237      .   S
    Zr15   O95       1.74359      .   S
    N91    O96       1.26237      .   S
    Zr15   O96       1.74352      .   S
    N97    O98       1.26256      .   S
    Zr15   O98       1.74382      .   S
    N97    O99       1.26254      .   S
    Zr15   O99       1.74392      .   S
    N97    O100      2.21441      .   S
    Zr4    O100      3.26180      .   S
    N97    O101      0.78665      .   S
    Zr15   O101      2.01626      .   S
    N97    O102      2.21480      .   S
    Zr1    O102      3.26245      .   S
    N103   O104      1.24308      .   S
    Zr11   O104      2.25633      .   S
    N103   O105      1.26295      .   S
    Zr6    O105      2.39241      .   S
    N106   O107      2.21831  1_566   S
    Zr2    O107      3.26613      .   S
    N106   O108      0.78357      .   S
    Zr8    O108      2.01304  1_445   S
    N106   O109      2.21222      .   S
    Zr7    O109      3.26072      .   S
    N106   O110      1.25817      .   S
    Zr8    O110      1.74196  1_445   S
    N106   O111      1.26130  1_566   S
    Zr8    O111      1.73972  1_456   S
    N112   O113      0.78355      .   S
    Zr12   O113      2.01303  1_445   S
    N112   O114      2.21818  1_655   S
    Zr5    O114      3.26601      .   S
    N112   O115      1.26124  1_655   S
    Zr12   O115      1.73973  1_545   S
    N112   O116      2.21218      .   S
    Zr3    O116      3.26069      .   S
    N112   O117      1.25818      .   S
    Zr12   O117      1.74189  1_445   S
    N118   O119      1.25826  1_554   S
    Zr10   O119      1.74213  1_545   S
    N118   O120      2.21823  1_565   S
    Zr0    O120      3.26605      .   S
    N118   O121      2.21230  1_554   S
    Zr5    O121      3.26079      .   S
    N118   O122      1.26133  1_565   S
    Zr10   O122      1.73994  1_556   S
    N118   O123      0.78363  1_554   S
    Zr10   O123      2.01324  1_545   S
    N124   O125      1.25821      .   S
    Zr12   O125      1.74181  1_445   S
    N124   O126      0.78354      .   S
    Zr12   O126      2.01301  1_445   S
    N124   O127      1.26120  1_565   S
    Zr12   O127      1.73975  1_455   S
    N124   O128      2.21814  1_565   S
    Zr2    O128      3.26600      .   S
    N124   O129      2.21219      .   S
    Zr7    O129      3.26066      .   S
    N130   O131      0.78659      .   S
    Zr13   O131      2.01607  1_455   S
    N130   O132      2.21440      .   S
    Zr6    O132      3.26179      .   S
    N130   O133      1.26249      .   S
    Zr13   O133      1.74365  1_455   S
    N130   O134      1.26249      .   S
    Zr13   O134      1.74374  1_455   S
    N130   O135      2.21479      .   S
    Zr3    O135      3.26244      .   S
    N136   O137      1.26253      .   S
    Zr15   O137      1.74389      .   S
    N136   O138      2.21479      .   S
    Zr6    O138      3.26241      .   S
    N136   O139      0.78666      .   S
    Zr15   O139      2.01629      .   S
    N136   O140      2.21442      .   S
    Zr0    O140      3.26184      .   S
    N136   O141      1.26258      .   S
    Zr15   O141      1.74391      .   S
    N142   O143      2.21483      .   S
    Zr7    O143      3.26245      .   S
    N142   O144      2.21438      .   S
    Zr1    O144      3.26181      .   S
    N142   O145      1.26246      .   S
    Zr14   O145      1.74370  1_545   S
    N142   O146      0.78659      .   S
    Zr14   O146      2.01608  1_545   S
    N142   O147      1.26253      .   S
    Zr14   O147      1.74370  1_545   S
    N148   O149      1.26227  1_556   S
    Zr8    O149      1.74346  1_556   S
    N148   O150      0.78650      .   S
    Zr8    O150      2.01578      .   S
    N148   O151      1.26236      .   S
    Zr8    O151      1.74351      .   S
    N148   O152      2.21432  1_556   S
    Zr0    O152      3.26182      .   S
    N148   O153      2.21430      .   S
    Zr4    O153      3.26164      .   S
    N154   O155      1.23880      .   S
    Zr9    O155      2.25600  1_456   S
    N154   O156      1.25942      .   S
    Zr2    O156      2.39155      .   S
    N157   O158      1.26294      .   S
    Zr5    O158      2.39240      .   S
    N157   O159      1.24306      .   S
    Zr8    O159      2.25627  1_545   S
