# CIF file generated by openbabel 2.4.90, see http://openbabel.sf.net
data_I
_chemical_name_common ''
_cell_length_a 14.53
_cell_length_b 15.861
_cell_length_c 16.411
_cell_angle_alpha 89.999
_cell_angle_beta 89.998
_cell_angle_gamma 89.999
_space_group_name_H-M_alt 'P 1'
_space_group_name_Hall 'P 1'
loop_
    _symmetry_equiv_pos_as_xyz
    x,y,z
loop_
    _atom_site_label
    _atom_site_type_symbol
    _atom_site_fract_x
    _atom_site_fract_y
    _atom_site_fract_z
    _atom_site_occupancy
    H0      H    0.62819   0.27815   0.17766   1.000
    H1      H    0.87177   0.72179   0.67769   1.000
    H2      H    0.37184   0.77815   0.32232   1.000
    H3      H    0.12830   0.22179   0.82227   1.000
    H4      H    0.37185   0.72184   0.82231   1.000
    H5      H    0.12827   0.27821   0.32228   1.000
    H6      H    0.62820   0.22184   0.67765   1.000
    H7      H    0.87175   0.77821   0.17770   1.000
    C8      C    0.17300   0.99917   0.12066   1.000
    C9      C    0.19065   0.97060   0.90791   1.000
    C10     C    0.55431   0.38038   0.23753   1.000
    C11     C    0.54834   0.17771   0.18442   1.000
    C12     C    0.32698   0.00075   0.62063   1.000
    C13     C    0.30934   0.02931   0.40792   1.000
    C14     C    0.94564   0.61956   0.73758   1.000
    C15     C    0.95164   0.82222   0.68444   1.000
    C16     C    0.82704   0.49917   0.37932   1.000
    C17     C    0.80940   0.47060   0.59205   1.000
    C18     C    0.44573   0.88038   0.26245   1.000
    C19     C    0.45169   0.67770   0.31556   1.000
    C20     C    0.67306   0.50074   0.87933   1.000
    C21     C    0.69070   0.52930   0.09205   1.000
    C22     C    0.05441   0.11955   0.76238   1.000
    C23     C    0.04842   0.32222   0.81552   1.000
    C24     C    0.82705   0.00082   0.87931   1.000
    C25     C    0.80939   0.02940   0.09206   1.000
    C26     C    0.44573   0.61961   0.76244   1.000
    C27     C    0.45170   0.82228   0.81555   1.000
    C28     C    0.67306   0.99925   0.37934   1.000
    C29     C    0.69070   0.97070   0.59205   1.000
    O30     O    0.60594   0.95250   0.58264   1.000
    O31     O    0.12895   0.36207   0.29908   1.000
    O32     O    0.03114   0.10088   0.32641   1.000
    O33     O    0.12720   0.21120   0.33687   1.000
    C34     C    0.05440   0.38045   0.26239   1.000
    C35     C    0.04840   0.17778   0.31553   1.000
    C36     C    0.17300   0.50082   0.62065   1.000
    C37     C    0.19065   0.52939   0.40790   1.000
    C38     C    0.55432   0.11961   0.73752   1.000
    C39     C    0.54835   0.32229   0.68442   1.000
    C40     C    0.32699   0.49926   0.12065   1.000
    C41     C    0.30934   0.47070   0.90792   1.000
    C42     C    0.94563   0.88045   0.23759   1.000
    C43     C    0.95163   0.67778   0.18445   1.000
    O44     O    0.19890   0.01091   0.19443   1.000
    O45     O    0.09182   0.97436   0.10414   1.000
    O46     O    0.22948   0.95867   0.83887   1.000
    O47     O    0.10589   0.95241   0.91730   1.000
    O48     O    0.62889   0.36199   0.20088   1.000
    O49     O    0.53113   0.10079   0.17358   1.000
    O50     O    0.62713   0.21114   0.16307   1.000
    O51     O    0.53894   0.45202   0.27098   1.000
    O52     O    0.30108   0.98905   0.69441   1.000
    O53     O    0.40814   0.02562   0.60410   1.000
    O54     O    0.27051   0.04127   0.33889   1.000
    O55     O    0.39410   0.04750   0.41733   1.000
    O56     O    0.87109   0.63793   0.70089   1.000
    O57     O    0.96889   0.89913   0.67356   1.000
    O58     O    0.87284   0.78881   0.66310   1.000
    O59     O    0.96107   0.54790   0.77098   1.000
    O60     O    0.80113   0.51091   0.30555   1.000
    O61     O    0.90823   0.47437   0.39584   1.000
    O62     O    0.77057   0.45867   0.66109   1.000
    O63     O    0.89416   0.45241   0.58264   1.000
    O64     O    0.37115   0.86199   0.29910   1.000
    O65     O    0.46891   0.60079   0.32640   1.000
    O66     O    0.37290   0.71114   0.33691   1.000
    O67     O    0.46111   0.95202   0.22900   1.000
    O68     O    0.69897   0.48905   0.80555   1.000
    O69     O    0.59190   0.52561   0.89585   1.000
    O70     O    0.72953   0.54126   0.16100   1.000
    O71     O    0.60593   0.54750   0.08260   1.000
    O72     O    0.12896   0.13793   0.79907   1.000
    O73     O    0.03117   0.39913   0.82641   1.000
    O74     O    0.12723   0.28880   0.83686   1.000
    O75     O    0.03898   0.04790   0.72899   1.000
    O76     O    0.80114   0.98909   0.80554   1.000
    O77     O    0.90823   0.02564   0.89583   1.000
    O78     O    0.77056   0.04132   0.16110   1.000
    O79     O    0.89415   0.04758   0.08264   1.000
    O80     O    0.37115   0.63801   0.79909   1.000
    O81     O    0.46892   0.89920   0.82639   1.000
    O82     O    0.37291   0.78885   0.83690   1.000
    O83     O    0.46110   0.54797   0.72899   1.000
    O84     O    0.69897   0.01095   0.30556   1.000
    O85     O    0.59190   0.97438   0.39587   1.000
    O86     O    0.72954   0.95873   0.66108   1.000
    O87     O    0.03898   0.45211   0.22899   1.000
    O88     O    0.19891   0.48909   0.69442   1.000
    O89     O    0.09182   0.52563   0.60413   1.000
    O90     O    0.22948   0.54132   0.33880   1.000
    O91     O    0.10589   0.54758   0.41734   1.000
    O92     O    0.62890   0.13800   0.70087   1.000
    O93     O    0.53113   0.39920   0.67357   1.000
    O94     O    0.62714   0.28885   0.66306   1.000
    O95     O    0.53894   0.04797   0.77097   1.000
    O96     O    0.30107   0.51094   0.19442   1.000
    O97     O    0.40814   0.47439   0.10412   1.000
    O98     O    0.27051   0.45874   0.83889   1.000
    O99     O    0.39410   0.45250   0.91733   1.000
    O100    O    0.87108   0.86208   0.20090   1.000
    O101    O    0.96889   0.60088   0.17357   1.000
    O102    O    0.87282   0.71120   0.16311   1.000
    O103    O    0.96106   0.95211   0.27099   1.000
loop_
    _geom_bond_atom_site_label_1
    _geom_bond_atom_site_label_2
    _geom_bond_distance
    _geom_bond_site_symmetry_2
    _ccdc_geom_bond_type
    O71    C21       1.27441      .   S
    O79    C25       1.27430      .   S
    C21    O70       1.27860      .   S
    C25    O78       1.27979      .   S
    O97    C40       1.27268      .   S
    O45    C8        1.27272      .   S
    C40    O96       1.28132      .   S
    C8     O44       1.28143  1_565   S
    O50    H0        1.08963      .   S
    O50    C11       1.30937      .   S
    O102   H7        1.08964      .   S
    O102   C43       1.30944      .   S
    O101   C43       1.25803      .   S
    O49    C11       1.25802      .   S
    O48    C10       1.27317      .   S
    O100   C42       1.27313      .   S
    O87    C34       1.28158      .   S
    O67    C18       1.28158      .   S
    C10    O51       1.28161      .   S
    C42    O103      1.28162      .   S
    C34    O31       1.27315      .   S
    C18    O64       1.27321      .   S
    O60    C16       1.28144      .   S
    O84    C28       1.28146  1_545   S
    C35    O32       1.25804      .   S
    C35    O33       1.30942      .   S
    C19    O65       1.25802      .   S
    C19    O66       1.30937      .   S
    H5     O33       1.08968      .   S
    H2     O66       1.08965      .   S
    O90    C37       1.28065      .   S
    O54    C13       1.27976      .   S
    C16    O61       1.27271      .   S
    C28    O85       1.27268      .   S
    C37    O91       1.27436      .   S
    C13    O55       1.27432      .   S
    O30    C29       1.27431      .   S
    O63    C17       1.27429      .   S
    C29    O86       1.27979      .   S
    C17    O62       1.27975      .   S
    O53    C12       1.27269      .   S
    O89    C36       1.27271      .   S
    C12    O52       1.28146  1_545   S
    C36    O88       1.28143      .   S
    O94    H6        1.08963      .   S
    O94    C39       1.30942      .   S
    O58    H1        1.08965      .   S
    O58    C15       1.30943      .   S
    O57    C15       1.25804      .   S
    O93    C39       1.25803      .   S
    O92    C38       1.27320      .   S
    O56    C14       1.27314      .   S
    O75    C22       1.28154      .   S
    O83    C26       1.28161      .   S
    C38    O95       1.28159      .   S
    C14    O59       1.28158      .   S
    C22    O72       1.27315      .   S
    C26    O80       1.27316      .   S
    O76    C24       1.28142  1_565   S
    O68    C20       1.28149      .   S
    C23    O73       1.25805      .   S
    C23    O74       1.30948      .   S
    C27    O81       1.25802      .   S
    C27    O82       1.30937      .   S
    H3     O74       1.08964      .   S
    H4     O82       1.08964      .   S
    O46    C9        1.27976      .   S
    O98    C41       1.27980      .   S
    C24    O77       1.27273      .   S
    C20    O69       1.27266      .   S
    C9     O47       1.27426      .   S
    C41    O99       1.27430      .   S
