# CIF file generated by openbabel 2.4.90, see http://openbabel.sf.net
data_I
_chemical_name_common ''
_cell_length_a 14.53
_cell_length_b 15.861
_cell_length_c 16.411
_cell_angle_alpha 89.999
_cell_angle_beta 89.998
_cell_angle_gamma 89.999
_space_group_name_H-M_alt 'P 1'
_space_group_name_Hall 'P 1'
loop_
    _symmetry_equiv_pos_as_xyz
    x,y,z
loop_
    _atom_site_label
    _atom_site_type_symbol
    _atom_site_fract_x
    _atom_site_fract_y
    _atom_site_fract_z
    _atom_site_occupancy
    Cd0     Cd   0.12228   0.97642   0.31419   1.000
    Cd1     Cd   0.14229   0.93835   0.72198   1.000
    Cd2     Cd   0.37768   0.02362   0.81415   1.000
    Cd3     Cd   0.64231   0.56152   0.27799   1.000
    Cd4     Cd   0.87777   0.47643   0.18579   1.000
    Cd5     Cd   0.85776   0.43836   0.77798   1.000
    Cd6     Cd   0.62236   0.52362   0.68581   1.000
    Cd7     Cd   0.64232   0.93846   0.77798   1.000
    Cd8     Cd   0.87776   0.02359   0.68579   1.000
    Cd9     Cd   0.85775   0.06166   0.27799   1.000
    Cd10    Cd   0.62237   0.97637   0.18582   1.000
    Cd11    Cd   0.35773   0.43847   0.72199   1.000
    Cd12    Cd   0.12228   0.52358   0.81418   1.000
    Cd13    Cd   0.14229   0.56165   0.22199   1.000
    Cd14    Cd   0.37767   0.47637   0.31417   1.000
    Cd15    Cd   0.00000   0.00000   0.00000   1.000
    Cd16    Cd   0.50002   0.00000   0.49990   1.000
    Cd17    Cd   0.00001   0.50000   0.49999   1.000
    Cd18    Cd   0.50002   0.50000   0.00000   1.000
    H19     H    0.62819   0.27815   0.17766   1.000
    H20     H    0.87177   0.72179   0.67769   1.000
    H21     H    0.37184   0.77815   0.32232   1.000
    H22     H    0.12830   0.22179   0.82227   1.000
    Cd23    Cd   0.35773   0.06152   0.22199   1.000
    H24     H    0.37185   0.72184   0.82231   1.000
    H25     H    0.12827   0.27821   0.32228   1.000
    H26     H    0.62820   0.22184   0.67765   1.000
    H27     H    0.87175   0.77821   0.17770   1.000
    C28     C    0.17300   0.99917   0.12066   1.000
    C29     C    0.19065   0.97060   0.90791   1.000
    C30     C    0.55431   0.38038   0.23753   1.000
    C31     C    0.54834   0.17771   0.18442   1.000
    C32     C    0.32698   0.00075   0.62063   1.000
    C33     C    0.30934   0.02931   0.40792   1.000
    C34     C    0.94564   0.61956   0.73758   1.000
    C35     C    0.95164   0.82222   0.68444   1.000
    C36     C    0.82704   0.49917   0.37932   1.000
    C37     C    0.80940   0.47060   0.59205   1.000
    C38     C    0.44573   0.88038   0.26245   1.000
    C39     C    0.45169   0.67770   0.31556   1.000
    C40     C    0.67306   0.50074   0.87933   1.000
    C41     C    0.69070   0.52930   0.09205   1.000
    C42     C    0.05441   0.11955   0.76238   1.000
    C43     C    0.04842   0.32222   0.81552   1.000
    C44     C    0.82705   0.00082   0.87931   1.000
    C45     C    0.80939   0.02940   0.09206   1.000
    C46     C    0.44573   0.61961   0.76244   1.000
    C47     C    0.45170   0.82228   0.81555   1.000
    C48     C    0.67306   0.99925   0.37934   1.000
    C49     C    0.69070   0.97070   0.59205   1.000
    O50     O    0.60594   0.95250   0.58264   1.000
    O51     O    0.12895   0.36207   0.29908   1.000
    O52     O    0.03114   0.10088   0.32641   1.000
    O53     O    0.12720   0.21120   0.33687   1.000
    C54     C    0.05440   0.38045   0.26239   1.000
    C55     C    0.04840   0.17778   0.31553   1.000
    C56     C    0.17300   0.50082   0.62065   1.000
    C57     C    0.19065   0.52939   0.40790   1.000
    C58     C    0.55432   0.11961   0.73752   1.000
    C59     C    0.54835   0.32229   0.68442   1.000
    C60     C    0.32699   0.49926   0.12065   1.000
    C61     C    0.30934   0.47070   0.90792   1.000
    C62     C    0.94563   0.88045   0.23759   1.000
    C63     C    0.95163   0.67778   0.18445   1.000
    O64     O    0.19890   0.01091   0.19443   1.000
    O65     O    0.09182   0.97436   0.10414   1.000
    O66     O    0.22948   0.95867   0.83887   1.000
    O67     O    0.10589   0.95241   0.91730   1.000
    O68     O    0.62889   0.36199   0.20088   1.000
    O69     O    0.53113   0.10079   0.17358   1.000
    O70     O    0.62713   0.21114   0.16307   1.000
    O71     O    0.53894   0.45202   0.27098   1.000
    O72     O    0.30108   0.98905   0.69441   1.000
    O73     O    0.40814   0.02562   0.60410   1.000
    O74     O    0.27051   0.04127   0.33889   1.000
    O75     O    0.39410   0.04750   0.41733   1.000
    O76     O    0.87109   0.63793   0.70089   1.000
    O77     O    0.96889   0.89913   0.67356   1.000
    O78     O    0.87284   0.78881   0.66310   1.000
    O79     O    0.96107   0.54790   0.77098   1.000
    O80     O    0.80113   0.51091   0.30555   1.000
    O81     O    0.90823   0.47437   0.39584   1.000
    O82     O    0.77057   0.45867   0.66109   1.000
    O83     O    0.89416   0.45241   0.58264   1.000
    O84     O    0.37115   0.86199   0.29910   1.000
    O85     O    0.46891   0.60079   0.32640   1.000
    O86     O    0.37290   0.71114   0.33691   1.000
    O87     O    0.46111   0.95202   0.22900   1.000
    O88     O    0.69897   0.48905   0.80555   1.000
    O89     O    0.59190   0.52561   0.89585   1.000
    O90     O    0.72953   0.54126   0.16100   1.000
    O91     O    0.60593   0.54750   0.08260   1.000
    O92     O    0.12896   0.13793   0.79907   1.000
    O93     O    0.03117   0.39913   0.82641   1.000
    O94     O    0.12723   0.28880   0.83686   1.000
    O95     O    0.03898   0.04790   0.72899   1.000
    O96     O    0.80114   0.98909   0.80554   1.000
    O97     O    0.90823   0.02564   0.89583   1.000
    O98     O    0.77056   0.04132   0.16110   1.000
    O99     O    0.89415   0.04758   0.08264   1.000
    O100    O    0.37115   0.63801   0.79909   1.000
    O101    O    0.46892   0.89920   0.82639   1.000
    O102    O    0.37291   0.78885   0.83690   1.000
    O103    O    0.46110   0.54797   0.72899   1.000
    O104    O    0.69897   0.01095   0.30556   1.000
    O105    O    0.59190   0.97438   0.39587   1.000
    O106    O    0.72954   0.95873   0.66108   1.000
    O107    O    0.03898   0.45211   0.22899   1.000
    O108    O    0.19891   0.48909   0.69442   1.000
    O109    O    0.09182   0.52563   0.60413   1.000
    O110    O    0.22948   0.54132   0.33880   1.000
    O111    O    0.10589   0.54758   0.41734   1.000
    O112    O    0.62890   0.13800   0.70087   1.000
    O113    O    0.53113   0.39920   0.67357   1.000
    O114    O    0.62714   0.28885   0.66306   1.000
    O115    O    0.53894   0.04797   0.77097   1.000
    O116    O    0.30107   0.51094   0.19442   1.000
    O117    O    0.40814   0.47439   0.10412   1.000
    O118    O    0.27051   0.45874   0.83889   1.000
    O119    O    0.39410   0.45250   0.91733   1.000
    O120    O    0.87108   0.86208   0.20090   1.000
    O121    O    0.96889   0.60088   0.17357   1.000
    O122    O    0.87282   0.71120   0.16311   1.000
    O123    O    0.96106   0.95211   0.27099   1.000
loop_
    _geom_bond_atom_site_label_1
    _geom_bond_atom_site_label_2
    _geom_bond_distance
    _geom_bond_site_symmetry_2
    _ccdc_geom_bond_type
    Cd15   O99       2.18500  1_455   S
    Cd15   O65       2.20593  1_545   S
    Cd15   O97       2.20595  1_454   S
    Cd15   O67       2.18604  1_544   S
    O91    C41       1.27441      .   S
    O91    Cd18      2.18488      .   S
    O99    C45       1.27430      .   S
    C41    O90       1.27860      .   S
    C45    O98       1.27979      .   S
    O117   C60       1.27268      .   S
    O117   Cd18      2.20608      .   S
    O65    C28       1.27272      .   S
    C60    O116      1.28132      .   S
    C28    O64       1.28143  1_565   S
    O90    Cd3       2.32278      .   S
    O98    Cd9       2.32142      .   S
    O70    H19       1.08963      .   S
    O70    C31       1.30937      .   S
    O122   H27       1.08964      .   S
    O122   C63       1.30944      .   S
    O121   C63       1.25803      .   S
    O121   Cd4       2.38521      .   S
    O69    C31       1.25802      .   S
    O69    Cd10      2.38593  1_545   S
    Cd4    O80       2.32412      .   S
    Cd10   O104      2.32405  1_565   S
    O116   Cd14      2.32421      .   S
    O64    Cd0       2.32411  1_545   S
    O68    C30       1.27317      .   S
    O120   C62       1.27313      .   S
    Cd23   O87       2.29910  1_545   S
    Cd23   O74       2.32156      .   S
    Cd13   O107      2.29894      .   S
    Cd13   O110      2.32035      .   S
    O107   C54       1.28158      .   S
    O87    C38       1.28158      .   S
    C30    O71       1.28161      .   S
    C62    O123      1.28162      .   S
    C54    O51       1.27315      .   S
    C38    O84       1.27321      .   S
    O71    Cd3       2.29896      .   S
    O123   Cd9       2.29904  1_565   S
    O80    C36       1.28144      .   S
    O104   C48       1.28146  1_545   S
    Cd14   O85       2.38577      .   S
    Cd0    O52       2.38536  1_565   S
    C55    O52       1.25804      .   S
    C55    O53       1.30942      .   S
    C39    O85       1.25802      .   S
    C39    O86       1.30937      .   S
    H25    O53       1.08968      .   S
    H21    O86       1.08965      .   S
    O110   C57       1.28065      .   S
    O74    C33       1.27976      .   S
    C36    O81       1.27271      .   S
    C48    O105      1.27268      .   S
    O81    Cd17      2.20572  1_655   S
    O105   Cd16      2.20502  1_565   S
    C57    O111      1.27436      .   S
    C33    O75       1.27432      .   S
    O75    Cd16      2.18454      .   S
    O111   Cd17      2.18542      .   S
    Cd16   O50       2.18639  1_545   S
    Cd16   O73       2.20709      .   S
    Cd17   O83       2.18508  1_455   S
    Cd17   O109      2.20590      .   S
    O50    C49       1.27431      .   S
    O83    C37       1.27429      .   S
    C49    O106      1.27979      .   S
    C37    O82       1.27975      .   S
    O73    C32       1.27269      .   S
    O109   C56       1.27271      .   S
    C32    O72       1.28146  1_545   S
    C56    O108      1.28143      .   S
    O106   Cd7       2.32157      .   S
    O82    Cd5       2.32139      .   S
    O114   H26       1.08963      .   S
    O114   C59       1.30942      .   S
    O78    H20       1.08965      .   S
    O78    C35       1.30943      .   S
    O77    C35       1.25804      .   S
    O77    Cd8       2.38541  1_565   S
    O113   C59       1.25803      .   S
    O113   Cd6       2.38574      .   S
    Cd8    O96       2.32399  1_545   S
    Cd6    O88       2.32404      .   S
    O72    Cd2       2.32403  1_565   S
    O108   Cd12      2.32416      .   S
    O112   C58       1.27320      .   S
    O76    C34       1.27314      .   S
    Cd1    O95       2.29902  1_565   S
    Cd1    O66       2.32140      .   S
    Cd11   O103      2.29898      .   S
    Cd11   O118      2.32160      .   S
    O95    C42       1.28154      .   S
    O103   C46       1.28161      .   S
    C58    O115      1.28159      .   S
    C34    O79       1.28158      .   S
    C42    O92       1.27315      .   S
    C46    O100      1.27316      .   S
    O115   Cd7       2.29913  1_545   S
    O79    Cd5       2.29889      .   S
    O96    C44       1.28142  1_565   S
    O88    C40       1.28149      .   S
    Cd2    O101      2.38588  1_545   S
    Cd12   O93       2.38525      .   S
    C43    O93       1.25805      .   S
    C43    O94       1.30948      .   S
    C47    O101      1.25802      .   S
    C47    O102      1.30937      .   S
    H22    O94       1.08964      .   S
    H24    O102      1.08964      .   S
    O66    C29       1.27976      .   S
    O118   C61       1.27980      .   S
    C44    O97       1.27273      .   S
    C40    O89       1.27266      .   S
    O89    Cd18      2.20647  1_556   S
    C29    O67       1.27426      .   S
    C61    O119      1.27430      .   S
    O119   Cd18      2.18555  1_556   S
    O64    Cd23      2.48489      .   S
    O66    Cd2       2.42120  1_565   S
    O71    Cd14      2.47821      .   S
    O72    Cd1       2.48476      .   S
    O74    Cd0       2.42096  1_545   S
    O79    Cd12      2.47759  1_655   S
    O80    Cd3       2.48483      .   S
    O82    Cd6       2.42127      .   S
    O87    Cd10      2.47820      .   S
    O88    Cd5       2.48478      .   S
    O90    Cd4       2.42115      .   S
    O95    Cd8       2.47761  1_455   S
    O96    Cd7       2.48486      .   S
    O98    Cd10      2.42117  1_545   S
    O103   Cd6       2.47817      .   S
    O104   Cd9       2.48474      .   S
    O106   Cd8       2.42097  1_565   S
    O107   Cd4       2.47760  1_455   S
    O108   Cd11      2.48482      .   S
    O110   Cd14      2.42096      .   S
    O115   Cd2       2.47819      .   S
    O116   Cd13      2.48475      .   S
    O118   Cd12      2.42089      .   S
    O123   Cd0       2.47762  1_655   S
