# CIF file generated by openbabel 2.4.90, see http://openbabel.sf.net
data_I
_chemical_name_common ''
_cell_length_a 14.53
_cell_length_b 15.861
_cell_length_c 16.411
_cell_angle_alpha 89.999
_cell_angle_beta 89.998
_cell_angle_gamma 89.999
_space_group_name_H-M_alt 'P 1'
_space_group_name_Hall 'P 1'
loop_
    _symmetry_equiv_pos_as_xyz
    x,y,z
loop_
    _atom_site_label
    _atom_site_type_symbol
    _atom_site_fract_x
    _atom_site_fract_y
    _atom_site_fract_z
    _atom_site_occupancy
    C0      C    0.17300   0.99917   0.12066   1.000
    C1      C    0.19065   0.97060   0.90791   1.000
    C2      C    0.55431   0.38038   0.23753   1.000
    C3      C    0.54834   0.17771   0.18442   1.000
    C4      C    0.32698   0.00075   0.62063   1.000
    C5      C    0.30934   0.02931   0.40792   1.000
    C6      C    0.94564   0.61956   0.73758   1.000
    C7      C    0.95164   0.82222   0.68444   1.000
    C8      C    0.82704   0.49917   0.37932   1.000
    C9      C    0.80940   0.47060   0.59205   1.000
    C10     C    0.44573   0.88038   0.26245   1.000
    C11     C    0.45169   0.67770   0.31556   1.000
    C12     C    0.67306   0.50074   0.87933   1.000
    C13     C    0.69070   0.52930   0.09205   1.000
    C14     C    0.05441   0.11955   0.76238   1.000
    C15     C    0.04842   0.32222   0.81552   1.000
    C16     C    0.82705   0.00082   0.87931   1.000
    C17     C    0.80939   0.02940   0.09206   1.000
    C18     C    0.44573   0.61961   0.76244   1.000
    C19     C    0.45170   0.82228   0.81555   1.000
    C20     C    0.67306   0.99925   0.37934   1.000
    C21     C    0.69070   0.97070   0.59205   1.000
    C22     C    0.05440   0.38045   0.26239   1.000
    C23     C    0.04840   0.17778   0.31553   1.000
    C24     C    0.17300   0.50082   0.62065   1.000
    C25     C    0.19065   0.52939   0.40790   1.000
    C26     C    0.55432   0.11961   0.73752   1.000
    C27     C    0.54835   0.32229   0.68442   1.000
    C28     C    0.32699   0.49926   0.12065   1.000
    C29     C    0.30934   0.47070   0.90792   1.000
    C30     C    0.94563   0.88045   0.23759   1.000
    C31     C    0.95163   0.67778   0.18445   1.000
